                                  MODFLOW-2005     
      U.S. GEOLOGICAL SURVEY MODULAR FINITE-DIFFERENCE GROUND-WATER FLOW MODEL
              VERSION 1.9.25 06/04/2013 CFPv2 HTM/STM/UMT-LNK/CADS

           THIS IS A RESEARCH VERSION OF CFP MODE 1 FOR TEST PURPOSES
                  WITHOUT ANY WARRANTY REGARDING CORRECTNESS

           CONTACT: THOMAS.REIMANN@TU-DRESDEN.DE / BSHOEMAK@USGS.GOV


 LIST FILE: CFPy_example_04.list
                         UNIT    2

 OPENING CFPy_example_04.dis
 FILE TYPE:DIS   UNIT   11   STATUS:OLD    
 FORMAT:FORMATTED              ACCESS:SEQUENTIAL          

 OPENING CFPy_example_04.bas
 FILE TYPE:BAS6   UNIT   13   STATUS:OLD    
 FORMAT:FORMATTED              ACCESS:SEQUENTIAL          

 OPENING CFPy_example_04.lpf
 FILE TYPE:LPF   UNIT   15   STATUS:OLD    
 FORMAT:FORMATTED              ACCESS:SEQUENTIAL          

 OPENING CFPy_example_04.oc
 FILE TYPE:OC   UNIT   14   STATUS:OLD    
 FORMAT:FORMATTED              ACCESS:SEQUENTIAL          

 OPENING CFPy_example_04.pcg
 FILE TYPE:PCG   UNIT   27   STATUS:OLD    
 FORMAT:FORMATTED              ACCESS:SEQUENTIAL          

 OPENING CFPy_example_04.rch
 FILE TYPE:RCH   UNIT   19   STATUS:OLD    
 FORMAT:FORMATTED              ACCESS:SEQUENTIAL          

 OPENING CFPy_example_04.hds
 FILE TYPE:DATA(BINARY)   UNIT   51   STATUS:REPLACE
 FORMAT:BINARY                 ACCESS:SEQUENTIAL          

 OPENING CFPy_example_04.cbc
 FILE TYPE:DATA(BINARY)   UNIT   50   STATUS:REPLACE
 FORMAT:BINARY                 ACCESS:SEQUENTIAL          

 OPENING CFPy_example_04.coc
 FILE TYPE:COC   UNIT   54   STATUS:OLD    
 FORMAT:FORMATTED              ACCESS:SEQUENTIAL          

 OPENING CFPy_example_04.cfp
 FILE TYPE:CFP   UNIT   52   STATUS:OLD    
 FORMAT:FORMATTED              ACCESS:SEQUENTIAL          

 OPENING CFPy_example_04.crch
 FILE TYPE:CRCH   UNIT   53   STATUS:OLD    
 FORMAT:FORMATTED              ACCESS:SEQUENTIAL          

 BAS -- BASIC PACKAGE, VERSION 7, 5/2/2005 INPUT READ FROM UNIT   13

 DISCRETIZATION INPUT DATA READ FROM UNIT   11
 # DIS package for  MODFLOW-2005, generated by Flopy.
    3 LAYERS         4 ROWS         4 COLUMNS
    5 STRESS PERIOD(S) IN SIMULATION
 MODEL TIME UNIT IS DAYS
 MODEL LENGTH UNIT IS METERS
  Confining bed flag for each layer:
   0   0   0

                     DELR =   10.0000    

                     DELC =   10.0000    



           TOP ELEVATION OF LAYER 1
 READING ON UNIT   11 WITH FORMAT: (4E15.6)            



             MODEL LAYER BOTTOM EL. FOR LAYER   1
 READING ON UNIT   11 WITH FORMAT: (4E15.6)            



             MODEL LAYER BOTTOM EL. FOR LAYER   2
 READING ON UNIT   11 WITH FORMAT: (4E15.6)            



             MODEL LAYER BOTTOM EL. FOR LAYER   3
 READING ON UNIT   11 WITH FORMAT: (4E15.6)            


 STRESS PERIOD     LENGTH       TIME STEPS     MULTIPLIER FOR DELT    SS FLAG
 ----------------------------------------------------------------------------
        1         100.0000          1                    1.000         SS
        2         100.0000         10                    1.000         TR
        3         100.0000         10                    1.000         TR
        4         100.0000         10                    1.000         TR
        5         100.0000         10                    1.000         TR

 COMBINED STEADY-STATE AND TRANSIENT SIMULATION



 
 # BAS6 package for  MODFLOW-2005, generated by Flopy.                           
 THE FREE FORMAT OPTION HAS BEEN SELECTED



                     BOUNDARY ARRAY FOR LAYER   1
 READING ON UNIT   13 WITH FORMAT: (4I10)              



                     BOUNDARY ARRAY FOR LAYER   2
 READING ON UNIT   13 WITH FORMAT: (4I10)              



                     BOUNDARY ARRAY FOR LAYER   3
 READING ON UNIT   13 WITH FORMAT: (4I10)              

 AQUIFER HEAD WILL BE SET TO  -999.99     AT ALL NO-FLOW NODES (IBOUND=0).



                       INITIAL HEAD FOR LAYER   1
 READING ON UNIT   13 WITH FORMAT: (4E15.6)            



                       INITIAL HEAD FOR LAYER   2
 READING ON UNIT   13 WITH FORMAT: (4E15.6)            



                       INITIAL HEAD FOR LAYER   3
 READING ON UNIT   13 WITH FORMAT: (4E15.6)            
 # OC package for  MODFLOW-2005, generated by Flopy.

 OUTPUT CONTROL IS SPECIFIED ONLY AT TIME STEPS FOR WHICH OUTPUT IS DESIRED
 COMPACT CELL-BY-CELL BUDGET FILES WILL BE WRITTEN
 AUXILIARY DATA WILL BE SAVED IN CELL-BY-CELL BUDGET FILES
 HEAD PRINT FORMAT CODE IS   0    DRAWDOWN PRINT FORMAT CODE IS   0
 HEADS WILL BE SAVED ON UNIT   51    DRAWDOWNS WILL BE SAVED ON UNIT    0

 LPF -- LAYER-PROPERTY FLOW PACKAGE, VERSION 7, 5/2/2005
         INPUT READ FROM UNIT   15
 # LPF package for  MODFLOW-2005, generated by Flopy.
 HEAD AT CELLS THAT CONVERT TO DRY= -1.00000E+30
 No named parameters

   LAYER FLAGS:
 LAYER       LAYTYP        LAYAVG         CHANI        LAYVKA        LAYWET
 ---------------------------------------------------------------------------
    1             1             0     1.000E+00             0             0
    2             1             0     1.000E+00             0             0
    3             1             0     1.000E+00             0             0

   INTERPRETATION OF LAYER FLAGS:
                        INTERBLOCK     HORIZONTAL    DATA IN
         LAYER TYPE   TRANSMISSIVITY   ANISOTROPY   ARRAY VKA   WETTABILITY
 LAYER      (LAYTYP)      (LAYAVG)       (CHANI)      (LAYVKA)      (LAYWET)
 ---------------------------------------------------------------------------
    1   CONVERTIBLE      HARMONIC     1.000E+00    VERTICAL K  NON-WETTABLE
    2   CONVERTIBLE      HARMONIC     1.000E+00    VERTICAL K  NON-WETTABLE
    3   CONVERTIBLE      HARMONIC     1.000E+00    VERTICAL K  NON-WETTABLE

 WETTING CAPABILITY IS NOT ACTIVE IN ANY LAYER

    HYD. COND. ALONG ROWS =   1000.00     FOR LAYER   1

      VERTICAL HYD. COND. =   200.000     FOR LAYER   1

         SPECIFIC STORAGE =  2.000000E-05 FOR LAYER   1

           SPECIFIC YIELD =  0.200000     FOR LAYER   1

    HYD. COND. ALONG ROWS =   1000.00     FOR LAYER   2

      VERTICAL HYD. COND. =   200.000     FOR LAYER   2

         SPECIFIC STORAGE =  2.000000E-05 FOR LAYER   2

           SPECIFIC YIELD =  0.200000     FOR LAYER   2

    HYD. COND. ALONG ROWS =   1000.00     FOR LAYER   3

      VERTICAL HYD. COND. =   200.000     FOR LAYER   3

         SPECIFIC STORAGE =  2.000000E-05 FOR LAYER   3

           SPECIFIC YIELD =  0.200000     FOR LAYER   3

 RCH -- RECHARGE PACKAGE, VERSION 7, 5/2/2005 INPUT READ FROM UNIT   19
 # RCH package for  MODFLOW-2005, generated by Flopy.
 No named parameters
 OPTION 1 -- RECHARGE TO TOP LAYER
 CELL-BY-CELL FLOWS WILL BE SAVED ON UNIT   50


     0 Recharge parameters

 PCG -- CONJUGATE-GRADIENT SOLUTION PACKAGE, VERSION 7, 5/2/2005
 # PCG package for  MODFLOW-2005, generated by Flopy.
 MAXIMUM OF     20 CALLS OF SOLUTION ROUTINE
 MAXIMUM OF     10 INTERNAL ITERATIONS PER CALL TO SOLUTION ROUTINE
 MATRIX PRECONDITIONING TYPE :    1
 IHCOFADD option -- When an active cell is surrounded by dry cells, convert
 the cell to dry only if storage and head-dependent boundary flow are 0.



                                    SOLUTION BY THE CONJUGATE-GRADIENT METHOD
                                   -------------------------------------------
                    MAXIMUM NUMBER OF CALLS TO PCG ROUTINE =       20
                        MAXIMUM ITERATIONS PER CALL TO PCG =       10
                               MATRIX PRECONDITIONING TYPE =        1
        RELAXATION FACTOR (ONLY USED WITH PRECOND. TYPE 1) =    0.97000E+00
 PARAMETER OF POLYNOMIAL PRECOND. = 2 (2) OR IS CALCULATED :        2
                         HEAD CHANGE CRITERION FOR CLOSURE =    0.10000E-04
                     RESIDUAL CHANGE CRITERION FOR CLOSURE =    0.10000E-04
            PCG HEAD AND RESIDUAL CHANGE PRINTOUT INTERVAL =        5
     PRINTING FROM SOLVER IS LIMITED(1) OR SUPPRESSED (>1) =        0
                            STEADY-STATE DAMPING PARAMETER =    0.10000E+01
                               TRANSIENT DAMPING PARAMETER =    0.10000E+01
 
 CFP1AR READING FROM UNIT          52
 ---------------------------------
 CFP MODE 1 IS ACTIVE (PIPES) 
 ---------------------------------
    NUMBER OF NODES IS     5
    NUMBER OF TUBES IS     4
    NUMBER OF LAYERS IS    3
 GRAVITATIONAL CONSTANT (G) COMPUTED 
 WATER TEMPERATURE, IN DEGREES CELCIUS, IS    25.0000000000000     
  KINEMATIC VISCOSITY [L^2/T]=  7.716459760582384E-002
 
  NBR-ARRAY: 
         1      2     2     1      3     0     0     0     0     0      1     0     0     0     0     0
         2      1     3     1      3     0     0     0     0     0      2     0     0     0     0     0
         3      2     3     1      1     4     2     0     0     0      1     3     2     0     0     0
         4      3     3     1      5     3     0     0     0     0      4     3     0     0     0     0
         5      4     3     1      4     0     0     0     0     0      4     0     0     0     0     0
 NBR ARRAY READ
  NODE ELEVATIONS:
           1   4.50000000000000     
           2   4.50000000000000     
           3   4.50000000000000     
           4   4.50000000000000     
           5   4.50000000000000     
 FINISHED READING NEWTON RAPHSON ITERATION CONTROLS
 READING NODE AND TUBE DATA
 NO_P  DIAMETER  TORTUOSITY  RHEIGHT  LCRITREY_P TCRITREY_P
   1.     0.100        1.00   0.0100       10.00      20.00
   2.     0.100        1.00   0.0100       10.00      20.00
   3.     0.100        1.00   0.0100       10.00      20.00
   4.     0.100        1.00   0.0100       10.00      20.00
 READING NODE BOUNDARY CONDITIONS (FIXED HEADS, IBOUNDS, AND FBCs)
  NODE  HEAD AND/OR IBOUND
           1  -1.00000000000000     
           2   20.0000000000000     
           3  -1.00000000000000     
           4  -1.00000000000000     
           5  -1.00000000000000     
 SURFACE-AREA DEPENDENT EXCHANGE IS ACTIVE
 READING EXCHANGE COEFFICIENTS
 NODE I  K_EXCHANGE(I)
   1    5.000    
   2    5.000    
   3    5.000    
   4    5.000    
   5    5.000    
 READING CONDUIT OUTPUT CONTROL FROM UNIT          54
 NNODES             5
 TSNO               1
 TSNO               2
 TSNO               3
 TSNO               4
 TSNO               5
 NOTSNO             1
 NTUBES             4
 TSTU               1
 TSTU               2
 TSTU               3
 TSTU               4
 NOTSTU             1
 PROCESSING AND CHECKING CONDUIT-NETWORK
 TESTING THE CONDUIT NETWORK:
  NO ERRORS DETECTED           `:) 
  NO WARNINGS             `:)
 BEGINNING CFPM1 SUBROUTINE DETERM_TUB
 BEGINNING CFPM1 SUBROUTINE GEOCALC THAT CALCULATES XYZ COORDINATES OF NODES
 TOP-ARRAY / BOT-ARRAY:
   5.00000000000000             4.00000000000000     
   4.00000000000000             3.00000000000000     
   3.00000000000000             2.00000000000000     
  NODE   COLUMN    ROW    LAY      X         Y            Z      
      1      2      2      1     15.0000     15.0000     4.50000    
      2      1      3      1     5.00000     25.0000     4.50000    
      3      2      3      1     15.0000     25.0000     4.50000    
      4      3      3      1     25.0000     25.0000     4.50000    
      5      4      3      1     35.0000     25.0000     4.50000    
 
 BEGINNING CFPM1 LENGTH_CAL SUBROUTINE
 BEGINNING CFPM1 ROUGH_CAL SUBROUTINE
1
                            STRESS PERIOD NO.    1, LENGTH =   100.0000    
                            -----------------------------------------------

                              NUMBER OF TIME STEPS =     1

                               MULTIPLIER FOR DELT =     1.000

                            INITIAL TIME STEP SIZE =   100.0000    



                           RECHARGE
 READING ON UNIT   19 WITH FORMAT: (4E15.6)            
 
 CFP1RCH1RP SUBROUTINE READING FROM UNIT           53
  READING INPUT USED TO PARTICIAN RECHARGE
 0.0    0.0    0.0    1.0    0.0   
 COMPUTE NODE LENGTH
 NODE I     L_NODE (I)
   1        5.000
   2        5.000
   3       15.000
   4       10.000
   5        5.000
 
 SOLVING FOR HEAD 
  LAMINAR PRECALCULATION
TUBE   2 SWITCH LAM -> TURB: LAM_RE (   49.33    ) >= TCRITREY:   20.00     TURB_RE:   128.7    
TUBE   3 SWITCH LAM -> TURB: LAM_RE (   49.40    ) >= TCRITREY:   20.00     TURB_RE:   128.8    
MODFLOW ITER.#  NEWTON-RAPHSON ITER.#   MAXIMUM NODE HEAD CHANGE
         1                   1                  0.0000025582
TUBE   2 SWITCH TURB -> LAM: TURBREY (   1.361    ) <= LCRITREY:   10.00     LAM_RE:  0.2384    
TUBE   3 SWITCH TURB -> LAM: TURBREY (   1.077    ) <= LCRITREY:   10.00     LAM_RE:  0.2094    
         1                   2                  0.0000002569
  LAMINAR PRECALCULATION
TUBE   2 SWITCH LAM -> TURB: LAM_RE (   79.71    ) >= TCRITREY:   20.00     TURB_RE:   172.4    
TUBE   3 SWITCH LAM -> TURB: LAM_RE (   66.39    ) >= TCRITREY:   20.00     TURB_RE:   154.4    
MODFLOW ITER.#  NEWTON-RAPHSON ITER.#   MAXIMUM NODE HEAD CHANGE
         2                   1                  0.0000034665
         2                   2                  0.0000005553
         2                   3                  0.0000001633
MODFLOW ITER.#  NEWTON-RAPHSON ITER.#   MAXIMUM NODE HEAD CHANGE
         3                   1                  0.0000000066
         3                   2                  0.0000000000
         3                   3                  0.0000000000


     3 CALLS TO PCG ROUTINE FOR TIME STEP   1 IN STRESS PERIOD    1
    14 TOTAL ITERATIONS

 MAXIMUM HEAD CHANGE FOR EACH ITERATION (1 INDICATES THE FIRST INNER ITERATION):

    HEAD CHANGE    HEAD CHANGE    HEAD CHANGE    HEAD CHANGE    HEAD CHANGE 
   LAYER,ROW,COL  LAYER,ROW,COL  LAYER,ROW,COL  LAYER,ROW,COL  LAYER,ROW,COL
 ---------------------------------------------------------------------------
  1  0.5219E-03  0  0.1702E-03  0  0.4931E-04  0 -0.4042E-05  0  0.1602E-05
   (  1,  1,  4)  (  3,  3,  3)  (  3,  1,  4)  (  2,  3,  3)  (  3,  1,  4)
  0  0.8221E-06  0 -0.1538E-06  0  0.2269E-07  0  0.8656E-08  0  0.2437E-08
   (  2,  2,  4)  (  2,  1,  2)  (  1,  3,  4)  (  3,  4,  3)  (  1,  4,  4)
  1  0.5169E-07  0  0.2275E-07  0 -0.4344E-08  1  0.1666E-08
   (  1,  3,  4)  (  3,  1,  4)  (  1,  1,  4)  (  3,  1,  4)

 MAXIMUM RESIDUAL FOR EACH ITERATION (1 INDICATES THE FIRST INNER ITERATION):

    RESIDUAL       RESIDUAL       RESIDUAL       RESIDUAL       RESIDUAL    
   LAYER,ROW,COL  LAYER,ROW,COL  LAYER,ROW,COL  LAYER,ROW,COL  LAYER,ROW,COL
 ---------------------------------------------------------------------------
  1 -0.2687      0 -0.1341      0 -0.3080E-01  0  0.1529E-01  0 -0.4183E-02
   (  3,  3,  3)  (  3,  3,  2)  (  2,  2,  3)  (  1,  2,  4)  (  2,  2,  4)
  0  0.6872E-03  0 -0.2445E-03  0 -0.1126E-03  0 -0.3006E-04  0  0.5531E-05
   (  2,  1,  2)  (  3,  3,  3)  (  3,  3,  3)  (  3,  3,  3)  (  1,  3,  3)
  1  0.4770E-04  0 -0.1477E-04  0  0.7038E-05  1  0.3870E-05
   (  2,  3,  3)  (  2,  1,  2)  (  1,  3,  2)  (  1,  3,  2)


MODFLOW ITER.#  NEWTON-RAPHSON ITER.#   MAXIMUM NODE HEAD CHANGE
         3                   1                  0.0000000000
         3                   2                  0.0000000000
         3                   3                  0.0000000000

 OUTPUT CONTROL FOR STRESS PERIOD    1   TIME STEP   1
    SAVE HEAD FOR ALL LAYERS
 
 
 CFPM1 CRITERION OF CONVERGENCE:     0.1000000E-05
 CFPM1 MAXIMUM NUMBER OF ITERATIONS:   100
 
 
 CFPM1 RESULTS +++++++++++++++++++++++++++++++++++++++++++++++++++++++
 
 STRESS PERIOD/TIME STEP           1           1
 
NUMBER OF NEWTON RHAPSON ITERATIONS:     3
 
 ------- RESULTS OF FLOW CALCULATION -------
 
NODE# NODE HEAD[M] MATRIX HEAD [M] EXCHANGE [M^3/D]    CADSFLOW            PFPSFLOW         DIRECT RECHARGE        QWELL         FHLQ            CAUCHY         CAUCHY LQ               QLH              QFIX
    1  20.00000      20.00027       -0.2105309E-01       0.000000           0.000000           0.000000        0.000000         0.000000         0.000000         0.000000         0.000000         0.000000    
    2  20.00    FIX  20.00000           0.0000           0.000000           0.000000           0.000000        0.000000         0.000000         0.000000         0.000000         0.000000       -0.4842321    
    3  20.00000      20.00026       -0.6016012E-01       0.000000           0.000000           0.000000        0.000000         0.000000         0.000000         0.000000         0.000000         0.000000    
    4  20.00000      20.00040       -0.6251075E-01       0.000000           0.000000          0.3000000        0.000000         0.000000         0.000000         0.000000         0.000000         0.000000    
    5  20.00000      20.00052       -0.4050818E-01       0.000000           0.000000           0.000000        0.000000         0.000000         0.000000         0.000000         0.000000         0.000000    
 
TUBE  B  E  FLOW          Q [M^3/D]       DIAM.[M]        LEN.[M]        RE         RESIDENCE TIME [D]
   1   1   3   LAMI.         0.02105        0.10000       10.00000        3.47382        3.73056
   2   2   3   TURB.        -0.48423        0.10000       10.00000       79.89979        0.16219
   3   3   4   TURB.        -0.40302        0.10000       10.00000       66.49936        0.19488
   4   4   5   LAMI.        -0.04051        0.10000       10.00000        6.68397        1.93886
 

    BUDGET OF THE PIPE SYSTEM OF TIMESTEP    1 IN STRESS PERIOD    1
------------------------------------------------------------------------

  TOTAL SIMULATION TIME   100.000000000000      S
 
       CUMULATIVE VALUES (L**3)           RATES THIS TIME STEP (L**3/T)

            IN:                               IN:
     CONSTANT HEAD =   0.0000000          CONSTANT HEAD =   0.0000000    
   MATRIX EXCHANGE =   18.423213        MATRIX EXCHANGE =  0.18423213    
     PIPE RECHARGE =   30.000000          PIPE RECHARGE =  0.30000000    
       PFP STORAGE =   0.0000000            PFP STORAGE =   0.0000000    

     CUMULATIVE IN =   48.423213               TOTAL IN =  0.48423213    

           OUT:                               OUT:
     CONSTANT HEAD =   48.423213          CONSTANT HEAD =  0.48423213    
   MATRIX EXCHANGE =   0.0000000        MATRIX EXCHANGE =   0.0000000    
     PIPE RECHARGE =   0.0000000          PIPE RECHARGE =   0.0000000    
       PFP STORAGE =   0.0000000            PFP STORAGE =   0.0000000    

    CUMULATIVE OUT =   48.423213              TOTAL OUT =  0.48423213    

          IN - OUT =  0.50802242E-07           IN - OUT =  0.50802240E-09
     PERCENT ERROR =  0.00                PERCENT ERROR =  0.00


 
 ------------------------NODE WATER BUDGET-----------------------
  STRESS PERIOD           1  TIME STEP           1
 TOTAL SIMULATION TIME   100.000000000000     
 
 FLOW TO THE NODE IN M^3/D
 
 NODE   FIXED HEAD     RECHARGE        QWELL  MATRIX EXCH      STORAGE      TUBE_IN     TUBE_OUT         CADS     FHLQ(LQ)       CAUCHY   CAUCHY(LQ)          QLH     IN - OUT
   1     0.0000       0.0000       0.0000      0.21053E-01   0.0000       0.0000     -0.21053E-01   0.0000       0.0000       0.0000       0.0000       0.0000     -0.35529E-09
   2   -0.48423       0.0000       0.0000       0.0000       0.0000      0.48423       0.0000       0.0000       0.0000       0.0000       0.0000       0.0000       0.0000    
   3     0.0000       0.0000       0.0000      0.60160E-01   0.0000      0.42407     -0.48423       0.0000       0.0000       0.0000       0.0000       0.0000      0.61855E-09
   4     0.0000      0.30000       0.0000      0.62511E-01   0.0000      0.40508E-01 -0.40302       0.0000       0.0000       0.0000       0.0000       0.0000      0.65288E-09
   5     0.0000       0.0000       0.0000      0.40508E-01   0.0000       0.0000     -0.40508E-01   0.0000       0.0000       0.0000       0.0000       0.0000     -0.40812E-09
 TIME SERIES OUTPUT IN FILE NODE00000001.OUT
 TIME SERIES OUTPUT IN FILE NODE00000002.OUT
 TIME SERIES OUTPUT IN FILE NODE00000003.OUT
 TIME SERIES OUTPUT IN FILE NODE00000004.OUT
 TIME SERIES OUTPUT IN FILE NODE00000005.OUT
 TIME SERIES OUTPUT IN FILE TUBE00000001.OUT
 TIME SERIES OUTPUT IN FILE TUBE00000002.OUT
 TIME SERIES OUTPUT IN FILE TUBE00000003.OUT
 TIME SERIES OUTPUT IN FILE TUBE00000004.OUT

 HEAD WILL BE SAVED ON UNIT   51 AT END OF TIME STEP   1, STRESS PERIOD    1
1
  VOLUMETRIC BUDGET FOR ENTIRE MODEL AT END OF TIME STEP  1 IN STRESS PERIOD   1
  ------------------------------------------------------------------------------

     CUMULATIVE VOLUMES      L**3       RATES FOR THIS TIME STEP      L**3/T
     ------------------                 ------------------------

           IN:                                      IN:
           ---                                      ---
             STORAGE =           0.0000               STORAGE =           0.0000
       CONSTANT HEAD =           0.0000         CONSTANT HEAD =           0.0000
            RECHARGE =         330.0000              RECHARGE =           3.3000
               PIPES =           0.0000                 PIPES =           0.0000

            TOTAL IN =         330.0000              TOTAL IN =           3.3000

          OUT:                                     OUT:
          ----                                     ----
             STORAGE =           0.0000               STORAGE =           0.0000
       CONSTANT HEAD =         311.5763         CONSTANT HEAD =           3.1158
            RECHARGE =           0.0000              RECHARGE =           0.0000
               PIPES =          18.4232                 PIPES =           0.1842

           TOTAL OUT =         329.9995             TOTAL OUT =           3.3000

            IN - OUT =       4.6996E-04              IN - OUT =       4.6996E-06

 PERCENT DISCREPANCY =           0.00     PERCENT DISCREPANCY =           0.00






          TIME SUMMARY AT END OF TIME STEP   1 IN STRESS PERIOD    1
                    SECONDS     MINUTES      HOURS       DAYS        YEARS
                    -----------------------------------------------------------
   TIME STEP LENGTH 8.64000E+06 1.44000E+05  2400.0      100.00     0.27379    
 STRESS PERIOD TIME 8.64000E+06 1.44000E+05  2400.0      100.00     0.27379    
         TOTAL TIME 8.64000E+06 1.44000E+05  2400.0      100.00     0.27379    
1
1
                            STRESS PERIOD NO.    2, LENGTH =   100.0000    
                            -----------------------------------------------

                              NUMBER OF TIME STEPS =    10

                               MULTIPLIER FOR DELT =     1.000

                            INITIAL TIME STEP SIZE =   10.00000    



                           RECHARGE
 READING ON UNIT   19 WITH FORMAT: (4E15.6)            
 
 CFP1RCH1RP SUBROUTINE READING FROM UNIT           53
  READING INPUT USED TO PARTICIAN RECHARGE
 0.0    0.0    0.0    1.0    0.0   
 
 SOLVING FOR HEAD 
MODFLOW ITER.#  NEWTON-RAPHSON ITER.#   MAXIMUM NODE HEAD CHANGE
         1                   1                  0.0000007275
         1                   2                  0.0000001008
         1                   3                  0.0000000061
MODFLOW ITER.#  NEWTON-RAPHSON ITER.#   MAXIMUM NODE HEAD CHANGE
         2                   1                  0.0000003671
         2                   2                  0.0000000282
         2                   3                  0.0000000009
MODFLOW ITER.#  NEWTON-RAPHSON ITER.#   MAXIMUM NODE HEAD CHANGE
         3                   1                  0.0000000000
         3                   2                  0.0000000000
         3                   3                  0.0000000000


     3 CALLS TO PCG ROUTINE FOR TIME STEP   1 IN STRESS PERIOD    2
    13 TOTAL ITERATIONS
MODFLOW ITER.#  NEWTON-RAPHSON ITER.#   MAXIMUM NODE HEAD CHANGE
         3                   1                  0.0000000000
         3                   2                  0.0000000000
         3                   3                  0.0000000000

 NO OUTPUT CONTROL FOR STRESS PERIOD    2   TIME STEP   1
 
 
 CFPM1 CRITERION OF CONVERGENCE:     0.1000000E-05
 CFPM1 MAXIMUM NUMBER OF ITERATIONS:   100
 
 
 CFPM1 RESULTS +++++++++++++++++++++++++++++++++++++++++++++++++++++++
 
 STRESS PERIOD/TIME STEP           2           1
 
NUMBER OF NEWTON RHAPSON ITERATIONS:     3
 
 ------- RESULTS OF FLOW CALCULATION -------
 
NODE# NODE HEAD[M] MATRIX HEAD [M] EXCHANGE [M^3/D]    CADSFLOW            PFPSFLOW         DIRECT RECHARGE        QWELL         FHLQ            CAUCHY         CAUCHY LQ               QLH              QFIX
    1  20.00000      20.00009       -0.7023574E-02       0.000000           0.000000           0.000000        0.000000         0.000000         0.000000         0.000000         0.000000         0.000000    
    2  20.00    FIX  20.00000           0.0000           0.000000           0.000000           0.000000        0.000000         0.000000         0.000000         0.000000         0.000000       -0.1614635    
    3  20.00000      20.00009       -0.2007056E-01       0.000000           0.000000           0.000000        0.000000         0.000000         0.000000         0.000000         0.000000         0.000000    
    4  20.00000      20.00013       -0.2085674E-01       0.000000           0.000000          0.1000000        0.000000         0.000000         0.000000         0.000000         0.000000         0.000000    
    5  20.00000      20.00017       -0.1351263E-01       0.000000           0.000000           0.000000        0.000000         0.000000         0.000000         0.000000         0.000000         0.000000    
 
TUBE  B  E  FLOW          Q [M^3/D]       DIAM.[M]        LEN.[M]        RE         RESIDENCE TIME [D]
   1   1   3   LAMI.         0.00702        0.10000       10.00000        1.15891       11.18231
   2   2   3   TURB.        -0.16146        0.10000       10.00000       26.64198        0.48642
   3   3   4   TURB.        -0.13437        0.10000       10.00000       22.17136        0.58451
   4   4   5   LAMI.        -0.01351        0.10000       10.00000        2.22963        5.81232
 

    BUDGET OF THE PIPE SYSTEM OF TIMESTEP    1 IN STRESS PERIOD    2
------------------------------------------------------------------------

  TOTAL SIMULATION TIME   110.000000000000      S
 
       CUMULATIVE VALUES (L**3)           RATES THIS TIME STEP (L**3/T)

            IN:                               IN:
     CONSTANT HEAD =   0.0000000          CONSTANT HEAD =   0.0000000    
   MATRIX EXCHANGE =   19.037848        MATRIX EXCHANGE =  0.61463517E-01
     PIPE RECHARGE =   31.000000          PIPE RECHARGE =  0.10000000    
       PFP STORAGE =   0.0000000            PFP STORAGE =   0.0000000    

     CUMULATIVE IN =   50.037848               TOTAL IN =  0.16146352    

           OUT:                               OUT:
     CONSTANT HEAD =   50.037848          CONSTANT HEAD =  0.16146352    
   MATRIX EXCHANGE =   0.0000000        MATRIX EXCHANGE =   0.0000000    
     PIPE RECHARGE =   0.0000000          PIPE RECHARGE =   0.0000000    
       PFP STORAGE =   0.0000000            PFP STORAGE =   0.0000000    

    CUMULATIVE OUT =   50.037848              TOTAL OUT =  0.16146352    

          IN - OUT =  0.42658915E-07           IN - OUT = -0.81433261E-09
     PERCENT ERROR =  0.00                PERCENT ERROR =  0.00


 
 ------------------------NODE WATER BUDGET-----------------------
  STRESS PERIOD           2  TIME STEP           1
 TOTAL SIMULATION TIME   110.000000000000     
 
 FLOW TO THE NODE IN M^3/D
 
 NODE   FIXED HEAD     RECHARGE        QWELL  MATRIX EXCH      STORAGE      TUBE_IN     TUBE_OUT         CADS     FHLQ(LQ)       CAUCHY   CAUCHY(LQ)          QLH     IN - OUT
   1     0.0000       0.0000       0.0000      0.70236E-02   0.0000       0.0000     -0.70236E-02   0.0000       0.0000       0.0000       0.0000       0.0000      0.78951E-10
   2   -0.16146       0.0000       0.0000       0.0000       0.0000      0.16146       0.0000       0.0000       0.0000       0.0000       0.0000       0.0000       0.0000    
   3     0.0000       0.0000       0.0000      0.20071E-01   0.0000      0.14139     -0.16146       0.0000       0.0000       0.0000       0.0000       0.0000     -0.19135E-08
   4     0.0000      0.10000       0.0000      0.20857E-01   0.0000      0.13513E-01 -0.13437       0.0000       0.0000       0.0000       0.0000       0.0000      0.95319E-09
   5     0.0000       0.0000       0.0000      0.13513E-01   0.0000       0.0000     -0.13513E-01   0.0000       0.0000       0.0000       0.0000       0.0000      0.67018E-10
 
 SOLVING FOR HEAD 
MODFLOW ITER.#  NEWTON-RAPHSON ITER.#   MAXIMUM NODE HEAD CHANGE
         1                   1                  0.0000000000
         1                   2                  0.0000000000
         1                   3                  0.0000000000
     1 CALLS TO PCG ROUTINE FOR TIME STEP   2 IN STRESS PERIOD    2
     1 TOTAL ITERATIONS
MODFLOW ITER.#  NEWTON-RAPHSON ITER.#   MAXIMUM NODE HEAD CHANGE
         1                   1                  0.0000000000
         1                   2                  0.0000000000
         1                   3                  0.0000000000

 NO OUTPUT CONTROL FOR STRESS PERIOD    2   TIME STEP   2
 
 
 CFPM1 CRITERION OF CONVERGENCE:     0.1000000E-05
 CFPM1 MAXIMUM NUMBER OF ITERATIONS:   100
 
 
 CFPM1 RESULTS +++++++++++++++++++++++++++++++++++++++++++++++++++++++
 
 STRESS PERIOD/TIME STEP           2           2
 
NUMBER OF NEWTON RHAPSON ITERATIONS:     3
 
 ------- RESULTS OF FLOW CALCULATION -------
 
NODE# NODE HEAD[M] MATRIX HEAD [M] EXCHANGE [M^3/D]    CADSFLOW            PFPSFLOW         DIRECT RECHARGE        QWELL         FHLQ            CAUCHY         CAUCHY LQ               QLH              QFIX
    1  20.00000      20.00009       -0.7023561E-02       0.000000           0.000000           0.000000        0.000000         0.000000         0.000000         0.000000         0.000000         0.000000    
    2  20.00    FIX  20.00000           0.0000           0.000000           0.000000           0.000000        0.000000         0.000000         0.000000         0.000000         0.000000       -0.1614635    
    3  20.00000      20.00009       -0.2007054E-01       0.000000           0.000000           0.000000        0.000000         0.000000         0.000000         0.000000         0.000000         0.000000    
    4  20.00000      20.00013       -0.2085674E-01       0.000000           0.000000          0.1000000        0.000000         0.000000         0.000000         0.000000         0.000000         0.000000    
    5  20.00000      20.00017       -0.1351262E-01       0.000000           0.000000           0.000000        0.000000         0.000000         0.000000         0.000000         0.000000         0.000000    
 
TUBE  B  E  FLOW          Q [M^3/D]       DIAM.[M]        LEN.[M]        RE         RESIDENCE TIME [D]
   1   1   3   LAMI.         0.00702        0.10000       10.00000        1.15891       11.18233
   2   2   3   TURB.        -0.16146        0.10000       10.00000       26.64197        0.48642
   3   3   4   TURB.        -0.13437        0.10000       10.00000       22.17136        0.58451
   4   4   5   LAMI.        -0.01351        0.10000       10.00000        2.22962        5.81233
 

    BUDGET OF THE PIPE SYSTEM OF TIMESTEP    2 IN STRESS PERIOD    2
------------------------------------------------------------------------

  TOTAL SIMULATION TIME   120.000000000000      S
 
       CUMULATIVE VALUES (L**3)           RATES THIS TIME STEP (L**3/T)

            IN:                               IN:
     CONSTANT HEAD =   0.0000000          CONSTANT HEAD =   0.0000000    
   MATRIX EXCHANGE =   19.652483        MATRIX EXCHANGE =  0.61463464E-01
     PIPE RECHARGE =   32.000000          PIPE RECHARGE =  0.10000000    
       PFP STORAGE =   0.0000000            PFP STORAGE =   0.0000000    

     CUMULATIVE IN =   51.652483               TOTAL IN =  0.16146346    

           OUT:                               OUT:
     CONSTANT HEAD =   51.652483          CONSTANT HEAD =  0.16146346    
   MATRIX EXCHANGE =   0.0000000        MATRIX EXCHANGE =   0.0000000    
     PIPE RECHARGE =   0.0000000          PIPE RECHARGE =   0.0000000    
       PFP STORAGE =   0.0000000            PFP STORAGE =   0.0000000    

    CUMULATIVE OUT =   51.652483              TOTAL OUT =  0.16146346    

          IN - OUT =  0.58674441E-07           IN - OUT =  0.16015528E-08
     PERCENT ERROR =  0.00                PERCENT ERROR =  0.00


 
 ------------------------NODE WATER BUDGET-----------------------
  STRESS PERIOD           2  TIME STEP           2
 TOTAL SIMULATION TIME   120.000000000000     
 
 FLOW TO THE NODE IN M^3/D
 
 NODE   FIXED HEAD     RECHARGE        QWELL  MATRIX EXCH      STORAGE      TUBE_IN     TUBE_OUT         CADS     FHLQ(LQ)       CAUCHY   CAUCHY(LQ)          QLH     IN - OUT
   1     0.0000       0.0000       0.0000      0.70236E-02   0.0000       0.0000     -0.70236E-02   0.0000       0.0000       0.0000       0.0000       0.0000     -0.60483E-09
   2   -0.16146       0.0000       0.0000       0.0000       0.0000      0.16146       0.0000       0.0000       0.0000       0.0000       0.0000       0.0000       0.0000    
   3     0.0000       0.0000       0.0000      0.20071E-01   0.0000      0.14139     -0.16146       0.0000       0.0000       0.0000       0.0000       0.0000      0.47313E-08
   4     0.0000      0.10000       0.0000      0.20857E-01   0.0000      0.13513E-01 -0.13437       0.0000       0.0000       0.0000       0.0000       0.0000     -0.23050E-08
   5     0.0000       0.0000       0.0000      0.13513E-01   0.0000       0.0000     -0.13513E-01   0.0000       0.0000       0.0000       0.0000       0.0000     -0.21990E-09
 
 SOLVING FOR HEAD 
MODFLOW ITER.#  NEWTON-RAPHSON ITER.#   MAXIMUM NODE HEAD CHANGE
         1                   1                  0.0000000000
         1                   2                  0.0000000000
         1                   3                  0.0000000000
     1 CALLS TO PCG ROUTINE FOR TIME STEP   3 IN STRESS PERIOD    2
     1 TOTAL ITERATIONS
MODFLOW ITER.#  NEWTON-RAPHSON ITER.#   MAXIMUM NODE HEAD CHANGE
         1                   1                  0.0000000000
         1                   2                  0.0000000000
         1                   3                  0.0000000000

 NO OUTPUT CONTROL FOR STRESS PERIOD    2   TIME STEP   3
 
 
 CFPM1 CRITERION OF CONVERGENCE:     0.1000000E-05
 CFPM1 MAXIMUM NUMBER OF ITERATIONS:   100
 
 
 CFPM1 RESULTS +++++++++++++++++++++++++++++++++++++++++++++++++++++++
 
 STRESS PERIOD/TIME STEP           2           3
 
NUMBER OF NEWTON RHAPSON ITERATIONS:     3
 
 ------- RESULTS OF FLOW CALCULATION -------
 
NODE# NODE HEAD[M] MATRIX HEAD [M] EXCHANGE [M^3/D]    CADSFLOW            PFPSFLOW         DIRECT RECHARGE        QWELL         FHLQ            CAUCHY         CAUCHY LQ               QLH              QFIX
    1  20.00000      20.00009       -0.7023548E-02       0.000000           0.000000           0.000000        0.000000         0.000000         0.000000         0.000000         0.000000         0.000000    
    2  20.00    FIX  20.00000           0.0000           0.000000           0.000000           0.000000        0.000000         0.000000         0.000000         0.000000         0.000000       -0.1614634    
    3  20.00000      20.00009       -0.2007051E-01       0.000000           0.000000           0.000000        0.000000         0.000000         0.000000         0.000000         0.000000         0.000000    
    4  20.00000      20.00013       -0.2085670E-01       0.000000           0.000000          0.1000000        0.000000         0.000000         0.000000         0.000000         0.000000         0.000000    
    5  20.00000      20.00017       -0.1351261E-01       0.000000           0.000000           0.000000        0.000000         0.000000         0.000000         0.000000         0.000000         0.000000    
 
TUBE  B  E  FLOW          Q [M^3/D]       DIAM.[M]        LEN.[M]        RE         RESIDENCE TIME [D]
   1   1   3   LAMI.         0.00702        0.10000       10.00000        1.15891       11.18236
   2   2   3   TURB.        -0.16146        0.10000       10.00000       26.64195        0.48643
   3   3   4   TURB.        -0.13437        0.10000       10.00000       22.17135        0.58451
   4   4   5   LAMI.        -0.01351        0.10000       10.00000        2.22962        5.81234
 

    BUDGET OF THE PIPE SYSTEM OF TIMESTEP    3 IN STRESS PERIOD    2
------------------------------------------------------------------------

  TOTAL SIMULATION TIME   130.000000000000      S
 
       CUMULATIVE VALUES (L**3)           RATES THIS TIME STEP (L**3/T)

            IN:                               IN:
     CONSTANT HEAD =   0.0000000          CONSTANT HEAD =   0.0000000    
   MATRIX EXCHANGE =   20.267117        MATRIX EXCHANGE =  0.61463364E-01
     PIPE RECHARGE =   33.000000          PIPE RECHARGE =  0.10000000    
       PFP STORAGE =   0.0000000            PFP STORAGE =   0.0000000    

     CUMULATIVE IN =   53.267117               TOTAL IN =  0.16146336    

           OUT:                               OUT:
     CONSTANT HEAD =   53.267117          CONSTANT HEAD =  0.16146336    
   MATRIX EXCHANGE =   0.0000000        MATRIX EXCHANGE =   0.0000000    
     PIPE RECHARGE =   0.0000000          PIPE RECHARGE =   0.0000000    
       PFP STORAGE =   0.0000000            PFP STORAGE =   0.0000000    

    CUMULATIVE OUT =   53.267117              TOTAL OUT =  0.16146336    

          IN - OUT =  0.74917956E-07           IN - OUT =  0.16243523E-08
     PERCENT ERROR =  0.00                PERCENT ERROR =  0.00


 
 ------------------------NODE WATER BUDGET-----------------------
  STRESS PERIOD           2  TIME STEP           3
 TOTAL SIMULATION TIME   130.000000000000     
 
 FLOW TO THE NODE IN M^3/D
 
 NODE   FIXED HEAD     RECHARGE        QWELL  MATRIX EXCH      STORAGE      TUBE_IN     TUBE_OUT         CADS     FHLQ(LQ)       CAUCHY   CAUCHY(LQ)          QLH     IN - OUT
   1     0.0000       0.0000       0.0000      0.70235E-02   0.0000       0.0000     -0.70235E-02   0.0000       0.0000       0.0000       0.0000       0.0000     -0.39747E-09
   2   -0.16146       0.0000       0.0000       0.0000       0.0000      0.16146       0.0000       0.0000       0.0000       0.0000       0.0000       0.0000       0.0000    
   3     0.0000       0.0000       0.0000      0.20071E-01   0.0000      0.14139     -0.16146       0.0000       0.0000       0.0000       0.0000       0.0000      0.54152E-08
   4     0.0000      0.10000       0.0000      0.20857E-01   0.0000      0.13513E-01 -0.13437       0.0000       0.0000       0.0000       0.0000       0.0000     -0.33709E-08
   5     0.0000       0.0000       0.0000      0.13513E-01   0.0000       0.0000     -0.13513E-01   0.0000       0.0000       0.0000       0.0000       0.0000     -0.22565E-10
 
 SOLVING FOR HEAD 
MODFLOW ITER.#  NEWTON-RAPHSON ITER.#   MAXIMUM NODE HEAD CHANGE
         1                   1                  0.0000000000
         1                   2                  0.0000000000
         1                   3                  0.0000000000
     1 CALLS TO PCG ROUTINE FOR TIME STEP   4 IN STRESS PERIOD    2
     1 TOTAL ITERATIONS
MODFLOW ITER.#  NEWTON-RAPHSON ITER.#   MAXIMUM NODE HEAD CHANGE
         1                   1                  0.0000000000
         1                   2                  0.0000000000
         1                   3                  0.0000000000

 NO OUTPUT CONTROL FOR STRESS PERIOD    2   TIME STEP   4
 
 
 CFPM1 CRITERION OF CONVERGENCE:     0.1000000E-05
 CFPM1 MAXIMUM NUMBER OF ITERATIONS:   100
 
 
 CFPM1 RESULTS +++++++++++++++++++++++++++++++++++++++++++++++++++++++
 
 STRESS PERIOD/TIME STEP           2           4
 
NUMBER OF NEWTON RHAPSON ITERATIONS:     3
 
 ------- RESULTS OF FLOW CALCULATION -------
 
NODE# NODE HEAD[M] MATRIX HEAD [M] EXCHANGE [M^3/D]    CADSFLOW            PFPSFLOW         DIRECT RECHARGE        QWELL         FHLQ            CAUCHY         CAUCHY LQ               QLH              QFIX
    1  20.00000      20.00009       -0.7023542E-02       0.000000           0.000000           0.000000        0.000000         0.000000         0.000000         0.000000         0.000000         0.000000    
    2  20.00    FIX  20.00000           0.0000           0.000000           0.000000           0.000000        0.000000         0.000000         0.000000         0.000000         0.000000       -0.1614633    
    3  20.00000      20.00009       -0.2007049E-01       0.000000           0.000000           0.000000        0.000000         0.000000         0.000000         0.000000         0.000000         0.000000    
    4  20.00000      20.00013       -0.2085669E-01       0.000000           0.000000          0.1000000        0.000000         0.000000         0.000000         0.000000         0.000000         0.000000    
    5  20.00000      20.00017       -0.1351260E-01       0.000000           0.000000           0.000000        0.000000         0.000000         0.000000         0.000000         0.000000         0.000000    
 
TUBE  B  E  FLOW          Q [M^3/D]       DIAM.[M]        LEN.[M]        RE         RESIDENCE TIME [D]
   1   1   3   LAMI.         0.00702        0.10000       10.00000        1.15891       11.18237
   2   2   3   TURB.        -0.16146        0.10000       10.00000       26.64194        0.48643
   3   3   4   TURB.        -0.13437        0.10000       10.00000       22.17134        0.58451
   4   4   5   LAMI.        -0.01351        0.10000       10.00000        2.22962        5.81234
 

    BUDGET OF THE PIPE SYSTEM OF TIMESTEP    4 IN STRESS PERIOD    2
------------------------------------------------------------------------

  TOTAL SIMULATION TIME   140.000000000000      S
 
       CUMULATIVE VALUES (L**3)           RATES THIS TIME STEP (L**3/T)

            IN:                               IN:
     CONSTANT HEAD =   0.0000000          CONSTANT HEAD =   0.0000000    
   MATRIX EXCHANGE =   20.881750        MATRIX EXCHANGE =  0.61463320E-01
     PIPE RECHARGE =   34.000000          PIPE RECHARGE =  0.10000000    
       PFP STORAGE =   0.0000000            PFP STORAGE =   0.0000000    

     CUMULATIVE IN =   54.881750               TOTAL IN =  0.16146332    

           OUT:                               OUT:
     CONSTANT HEAD =   54.881750          CONSTANT HEAD =  0.16146332    
   MATRIX EXCHANGE =   0.0000000        MATRIX EXCHANGE =   0.0000000    
     PIPE RECHARGE =   0.0000000          PIPE RECHARGE =   0.0000000    
       PFP STORAGE =   0.0000000            PFP STORAGE =   0.0000000    

    CUMULATIVE OUT =   54.881750              TOTAL OUT =  0.16146332    

          IN - OUT =  0.61439110E-07           IN - OUT = -0.13478847E-08
     PERCENT ERROR =  0.00                PERCENT ERROR =  0.00


 
 ------------------------NODE WATER BUDGET-----------------------
  STRESS PERIOD           2  TIME STEP           4
 TOTAL SIMULATION TIME   140.000000000000     
 
 FLOW TO THE NODE IN M^3/D
 
 NODE   FIXED HEAD     RECHARGE        QWELL  MATRIX EXCH      STORAGE      TUBE_IN     TUBE_OUT         CADS     FHLQ(LQ)       CAUCHY   CAUCHY(LQ)          QLH     IN - OUT
   1     0.0000       0.0000       0.0000      0.70235E-02   0.0000       0.0000     -0.70235E-02   0.0000       0.0000       0.0000       0.0000       0.0000     -0.41834E-10
   2   -0.16146       0.0000       0.0000       0.0000       0.0000      0.16146       0.0000       0.0000       0.0000       0.0000       0.0000       0.0000       0.0000    
   3     0.0000       0.0000       0.0000      0.20070E-01   0.0000      0.14139     -0.16146       0.0000       0.0000       0.0000       0.0000       0.0000     -0.14709E-08
   4     0.0000      0.10000       0.0000      0.20857E-01   0.0000      0.13513E-01 -0.13437       0.0000       0.0000       0.0000       0.0000       0.0000     -0.12563E-09
   5     0.0000       0.0000       0.0000      0.13513E-01   0.0000       0.0000     -0.13513E-01   0.0000       0.0000       0.0000       0.0000       0.0000      0.29052E-09
 
 SOLVING FOR HEAD 
MODFLOW ITER.#  NEWTON-RAPHSON ITER.#   MAXIMUM NODE HEAD CHANGE
         1                   1                  0.0000000000
         1                   2                  0.0000000000
         1                   3                  0.0000000000
     1 CALLS TO PCG ROUTINE FOR TIME STEP   5 IN STRESS PERIOD    2
     1 TOTAL ITERATIONS

 MAXIMUM HEAD CHANGE FOR EACH ITERATION (1 INDICATES THE FIRST INNER ITERATION):

    HEAD CHANGE    HEAD CHANGE    HEAD CHANGE    HEAD CHANGE    HEAD CHANGE 
   LAYER,ROW,COL  LAYER,ROW,COL  LAYER,ROW,COL  LAYER,ROW,COL  LAYER,ROW,COL
 ---------------------------------------------------------------------------
  1  0.1291E-09
   (  2,  1,  4)

 MAXIMUM RESIDUAL FOR EACH ITERATION (1 INDICATES THE FIRST INNER ITERATION):

    RESIDUAL       RESIDUAL       RESIDUAL       RESIDUAL       RESIDUAL    
   LAYER,ROW,COL  LAYER,ROW,COL  LAYER,ROW,COL  LAYER,ROW,COL  LAYER,ROW,COL
 ---------------------------------------------------------------------------
  1  0.1780E-06
   (  2,  3,  2)


MODFLOW ITER.#  NEWTON-RAPHSON ITER.#   MAXIMUM NODE HEAD CHANGE
         1                   1                  0.0000000000
         1                   2                  0.0000000000
         1                   3                  0.0000000000

 NO OUTPUT CONTROL FOR STRESS PERIOD    2   TIME STEP   5
 
 
 CFPM1 CRITERION OF CONVERGENCE:     0.1000000E-05
 CFPM1 MAXIMUM NUMBER OF ITERATIONS:   100
 
 
 CFPM1 RESULTS +++++++++++++++++++++++++++++++++++++++++++++++++++++++
 
 STRESS PERIOD/TIME STEP           2           5
 
NUMBER OF NEWTON RHAPSON ITERATIONS:     3
 
 ------- RESULTS OF FLOW CALCULATION -------
 
NODE# NODE HEAD[M] MATRIX HEAD [M] EXCHANGE [M^3/D]    CADSFLOW            PFPSFLOW         DIRECT RECHARGE        QWELL         FHLQ            CAUCHY         CAUCHY LQ               QLH              QFIX
    1  20.00000      20.00009       -0.7023537E-02       0.000000           0.000000           0.000000        0.000000         0.000000         0.000000         0.000000         0.000000         0.000000    
    2  20.00    FIX  20.00000           0.0000           0.000000           0.000000           0.000000        0.000000         0.000000         0.000000         0.000000         0.000000       -0.1614633    
    3  20.00000      20.00009       -0.2007048E-01       0.000000           0.000000           0.000000        0.000000         0.000000         0.000000         0.000000         0.000000         0.000000    
    4  20.00000      20.00013       -0.2085667E-01       0.000000           0.000000          0.1000000        0.000000         0.000000         0.000000         0.000000         0.000000         0.000000    
    5  20.00000      20.00017       -0.1351259E-01       0.000000           0.000000           0.000000        0.000000         0.000000         0.000000         0.000000         0.000000         0.000000    
 
TUBE  B  E  FLOW          Q [M^3/D]       DIAM.[M]        LEN.[M]        RE         RESIDENCE TIME [D]
   1   1   3   LAMI.         0.00702        0.10000       10.00000        1.15891       11.18238
   2   2   3   TURB.        -0.16146        0.10000       10.00000       26.64194        0.48643
   3   3   4   TURB.        -0.13437        0.10000       10.00000       22.17134        0.58451
   4   4   5   LAMI.        -0.01351        0.10000       10.00000        2.22962        5.81234
 

    BUDGET OF THE PIPE SYSTEM OF TIMESTEP    5 IN STRESS PERIOD    2
------------------------------------------------------------------------

  TOTAL SIMULATION TIME   150.000000000000      S
 
       CUMULATIVE VALUES (L**3)           RATES THIS TIME STEP (L**3/T)

            IN:                               IN:
     CONSTANT HEAD =   0.0000000          CONSTANT HEAD =   0.0000000    
   MATRIX EXCHANGE =   21.496383        MATRIX EXCHANGE =  0.61463279E-01
     PIPE RECHARGE =   35.000000          PIPE RECHARGE =  0.10000000    
       PFP STORAGE =   0.0000000            PFP STORAGE =   0.0000000    

     CUMULATIVE IN =   56.496383               TOTAL IN =  0.16146328    

           OUT:                               OUT:
     CONSTANT HEAD =   56.496383          CONSTANT HEAD =  0.16146328    
   MATRIX EXCHANGE =   0.0000000        MATRIX EXCHANGE =   0.0000000    
     PIPE RECHARGE =   0.0000000          PIPE RECHARGE =   0.0000000    
       PFP STORAGE =   0.0000000            PFP STORAGE =   0.0000000    

    CUMULATIVE OUT =   56.496383              TOTAL OUT =  0.16146328    

          IN - OUT =  0.57589467E-07           IN - OUT = -0.38496364E-09
     PERCENT ERROR =  0.00                PERCENT ERROR =  0.00


 
 ------------------------NODE WATER BUDGET-----------------------
  STRESS PERIOD           2  TIME STEP           5
 TOTAL SIMULATION TIME   150.000000000000     
 
 FLOW TO THE NODE IN M^3/D
 
 NODE   FIXED HEAD     RECHARGE        QWELL  MATRIX EXCH      STORAGE      TUBE_IN     TUBE_OUT         CADS     FHLQ(LQ)       CAUCHY   CAUCHY(LQ)          QLH     IN - OUT
   1     0.0000       0.0000       0.0000      0.70235E-02   0.0000       0.0000     -0.70235E-02   0.0000       0.0000       0.0000       0.0000       0.0000      0.42550E-09
   2   -0.16146       0.0000       0.0000       0.0000       0.0000      0.16146       0.0000       0.0000       0.0000       0.0000       0.0000       0.0000       0.0000    
   3     0.0000       0.0000       0.0000      0.20070E-01   0.0000      0.14139     -0.16146       0.0000       0.0000       0.0000       0.0000       0.0000     -0.21273E-08
   4     0.0000      0.10000       0.0000      0.20857E-01   0.0000      0.13513E-01 -0.13437       0.0000       0.0000       0.0000       0.0000       0.0000      0.12364E-08
   5     0.0000       0.0000       0.0000      0.13513E-01   0.0000       0.0000     -0.13513E-01   0.0000       0.0000       0.0000       0.0000       0.0000      0.80457E-10
 
 SOLVING FOR HEAD 
MODFLOW ITER.#  NEWTON-RAPHSON ITER.#   MAXIMUM NODE HEAD CHANGE
         1                   1                  0.0000000000
         1                   2                  0.0000000000
         1                   3                  0.0000000000
     1 CALLS TO PCG ROUTINE FOR TIME STEP   6 IN STRESS PERIOD    2
     1 TOTAL ITERATIONS
MODFLOW ITER.#  NEWTON-RAPHSON ITER.#   MAXIMUM NODE HEAD CHANGE
         1                   1                  0.0000000000
         1                   2                  0.0000000000
         1                   3                  0.0000000000

 NO OUTPUT CONTROL FOR STRESS PERIOD    2   TIME STEP   6
 
 
 CFPM1 CRITERION OF CONVERGENCE:     0.1000000E-05
 CFPM1 MAXIMUM NUMBER OF ITERATIONS:   100
 
 
 CFPM1 RESULTS +++++++++++++++++++++++++++++++++++++++++++++++++++++++
 
 STRESS PERIOD/TIME STEP           2           6
 
NUMBER OF NEWTON RHAPSON ITERATIONS:     3
 
 ------- RESULTS OF FLOW CALCULATION -------
 
NODE# NODE HEAD[M] MATRIX HEAD [M] EXCHANGE [M^3/D]    CADSFLOW            PFPSFLOW         DIRECT RECHARGE        QWELL         FHLQ            CAUCHY         CAUCHY LQ               QLH              QFIX
    1  20.00000      20.00009       -0.7023534E-02       0.000000           0.000000           0.000000        0.000000         0.000000         0.000000         0.000000         0.000000         0.000000    
    2  20.00    FIX  20.00000           0.0000           0.000000           0.000000           0.000000        0.000000         0.000000         0.000000         0.000000         0.000000       -0.1614633    
    3  20.00000      20.00009       -0.2007047E-01       0.000000           0.000000           0.000000        0.000000         0.000000         0.000000         0.000000         0.000000         0.000000    
    4  20.00000      20.00013       -0.2085667E-01       0.000000           0.000000          0.1000000        0.000000         0.000000         0.000000         0.000000         0.000000         0.000000    
    5  20.00000      20.00017       -0.1351259E-01       0.000000           0.000000           0.000000        0.000000         0.000000         0.000000         0.000000         0.000000         0.000000    
 
TUBE  B  E  FLOW          Q [M^3/D]       DIAM.[M]        LEN.[M]        RE         RESIDENCE TIME [D]
   1   1   3   LAMI.         0.00702        0.10000       10.00000        1.15890       11.18238
   2   2   3   TURB.        -0.16146        0.10000       10.00000       26.64193        0.48643
   3   3   4   TURB.        -0.13437        0.10000       10.00000       22.17134        0.58451
   4   4   5   LAMI.        -0.01351        0.10000       10.00000        2.22962        5.81234
 

    BUDGET OF THE PIPE SYSTEM OF TIMESTEP    6 IN STRESS PERIOD    2
------------------------------------------------------------------------

  TOTAL SIMULATION TIME   160.000000000000      S
 
       CUMULATIVE VALUES (L**3)           RATES THIS TIME STEP (L**3/T)

            IN:                               IN:
     CONSTANT HEAD =   0.0000000          CONSTANT HEAD =   0.0000000    
   MATRIX EXCHANGE =   22.111015        MATRIX EXCHANGE =  0.61463260E-01
     PIPE RECHARGE =   36.000000          PIPE RECHARGE =  0.10000000    
       PFP STORAGE =   0.0000000            PFP STORAGE =   0.0000000    

     CUMULATIVE IN =   58.111015               TOTAL IN =  0.16146326    

           OUT:                               OUT:
     CONSTANT HEAD =   58.111015          CONSTANT HEAD =  0.16146326    
   MATRIX EXCHANGE =   0.0000000        MATRIX EXCHANGE =   0.0000000    
     PIPE RECHARGE =   0.0000000          PIPE RECHARGE =   0.0000000    
       PFP STORAGE =   0.0000000            PFP STORAGE =   0.0000000    

    CUMULATIVE OUT =   58.111015              TOTAL OUT =  0.16146326    

          IN - OUT =  0.68652529E-07           IN - OUT =  0.11063065E-08
     PERCENT ERROR =  0.00                PERCENT ERROR =  0.00


 
 ------------------------NODE WATER BUDGET-----------------------
  STRESS PERIOD           2  TIME STEP           6
 TOTAL SIMULATION TIME   160.000000000000     
 
 FLOW TO THE NODE IN M^3/D
 
 NODE   FIXED HEAD     RECHARGE        QWELL  MATRIX EXCH      STORAGE      TUBE_IN     TUBE_OUT         CADS     FHLQ(LQ)       CAUCHY   CAUCHY(LQ)          QLH     IN - OUT
   1     0.0000       0.0000       0.0000      0.70235E-02   0.0000       0.0000     -0.70235E-02   0.0000       0.0000       0.0000       0.0000       0.0000     -0.42738E-09
   2   -0.16146       0.0000       0.0000       0.0000       0.0000      0.16146       0.0000       0.0000       0.0000       0.0000       0.0000       0.0000       0.0000    
   3     0.0000       0.0000       0.0000      0.20070E-01   0.0000      0.14139     -0.16146       0.0000       0.0000       0.0000       0.0000       0.0000      0.10850E-08
   4     0.0000      0.10000       0.0000      0.20857E-01   0.0000      0.13513E-01 -0.13437       0.0000       0.0000       0.0000       0.0000       0.0000      0.81737E-09
   5     0.0000       0.0000       0.0000      0.13513E-01   0.0000       0.0000     -0.13513E-01   0.0000       0.0000       0.0000       0.0000       0.0000     -0.36865E-09
 
 SOLVING FOR HEAD 
MODFLOW ITER.#  NEWTON-RAPHSON ITER.#   MAXIMUM NODE HEAD CHANGE
         1                   1                  0.0000000000
         1                   2                  0.0000000000
         1                   3                  0.0000000000
     1 CALLS TO PCG ROUTINE FOR TIME STEP   7 IN STRESS PERIOD    2
     1 TOTAL ITERATIONS
MODFLOW ITER.#  NEWTON-RAPHSON ITER.#   MAXIMUM NODE HEAD CHANGE
         1                   1                  0.0000000000
         1                   2                  0.0000000000
         1                   3                  0.0000000000

 NO OUTPUT CONTROL FOR STRESS PERIOD    2   TIME STEP   7
 
 
 CFPM1 CRITERION OF CONVERGENCE:     0.1000000E-05
 CFPM1 MAXIMUM NUMBER OF ITERATIONS:   100
 
 
 CFPM1 RESULTS +++++++++++++++++++++++++++++++++++++++++++++++++++++++
 
 STRESS PERIOD/TIME STEP           2           7
 
NUMBER OF NEWTON RHAPSON ITERATIONS:     3
 
 ------- RESULTS OF FLOW CALCULATION -------
 
NODE# NODE HEAD[M] MATRIX HEAD [M] EXCHANGE [M^3/D]    CADSFLOW            PFPSFLOW         DIRECT RECHARGE        QWELL         FHLQ            CAUCHY         CAUCHY LQ               QLH              QFIX
    1  20.00000      20.00009       -0.7023532E-02       0.000000           0.000000           0.000000        0.000000         0.000000         0.000000         0.000000         0.000000         0.000000    
    2  20.00    FIX  20.00000           0.0000           0.000000           0.000000           0.000000        0.000000         0.000000         0.000000         0.000000         0.000000       -0.1614632    
    3  20.00000      20.00009       -0.2007046E-01       0.000000           0.000000           0.000000        0.000000         0.000000         0.000000         0.000000         0.000000         0.000000    
    4  20.00000      20.00013       -0.2085666E-01       0.000000           0.000000          0.1000000        0.000000         0.000000         0.000000         0.000000         0.000000         0.000000    
    5  20.00000      20.00017       -0.1351259E-01       0.000000           0.000000           0.000000        0.000000         0.000000         0.000000         0.000000         0.000000         0.000000    
 
TUBE  B  E  FLOW          Q [M^3/D]       DIAM.[M]        LEN.[M]        RE         RESIDENCE TIME [D]
   1   1   3   LAMI.         0.00702        0.10000       10.00000        1.15890       11.18238
   2   2   3   TURB.        -0.16146        0.10000       10.00000       26.64193        0.48643
   3   3   4   TURB.        -0.13437        0.10000       10.00000       22.17134        0.58451
   4   4   5   LAMI.        -0.01351        0.10000       10.00000        2.22962        5.81235
 

    BUDGET OF THE PIPE SYSTEM OF TIMESTEP    7 IN STRESS PERIOD    2
------------------------------------------------------------------------

  TOTAL SIMULATION TIME   170.000000000000      S
 
       CUMULATIVE VALUES (L**3)           RATES THIS TIME STEP (L**3/T)

            IN:                               IN:
     CONSTANT HEAD =   0.0000000          CONSTANT HEAD =   0.0000000    
   MATRIX EXCHANGE =   22.725648        MATRIX EXCHANGE =  0.61463244E-01
     PIPE RECHARGE =   37.000000          PIPE RECHARGE =  0.10000000    
       PFP STORAGE =   0.0000000            PFP STORAGE =   0.0000000    

     CUMULATIVE IN =   59.725648               TOTAL IN =  0.16146324    

           OUT:                               OUT:
     CONSTANT HEAD =   59.725648          CONSTANT HEAD =  0.16146325    
   MATRIX EXCHANGE =   0.0000000        MATRIX EXCHANGE =   0.0000000    
     PIPE RECHARGE =   0.0000000          PIPE RECHARGE =   0.0000000    
       PFP STORAGE =   0.0000000            PFP STORAGE =   0.0000000    

    CUMULATIVE OUT =   59.725648              TOTAL OUT =  0.16146325    

          IN - OUT =  0.57034210E-07           IN - OUT = -0.11618324E-08
     PERCENT ERROR =  0.00                PERCENT ERROR =  0.00


 
 ------------------------NODE WATER BUDGET-----------------------
  STRESS PERIOD           2  TIME STEP           7
 TOTAL SIMULATION TIME   170.000000000000     
 
 FLOW TO THE NODE IN M^3/D
 
 NODE   FIXED HEAD     RECHARGE        QWELL  MATRIX EXCH      STORAGE      TUBE_IN     TUBE_OUT         CADS     FHLQ(LQ)       CAUCHY   CAUCHY(LQ)          QLH     IN - OUT
   1     0.0000       0.0000       0.0000      0.70235E-02   0.0000       0.0000     -0.70235E-02   0.0000       0.0000       0.0000       0.0000       0.0000     -0.51225E-10
   2   -0.16146       0.0000       0.0000       0.0000       0.0000      0.16146       0.0000       0.0000       0.0000       0.0000       0.0000       0.0000       0.0000    
   3     0.0000       0.0000       0.0000      0.20070E-01   0.0000      0.14139     -0.16146       0.0000       0.0000       0.0000       0.0000       0.0000     -0.72721E-09
   4     0.0000      0.10000       0.0000      0.20857E-01   0.0000      0.13513E-01 -0.13437       0.0000       0.0000       0.0000       0.0000       0.0000     -0.57618E-09
   5     0.0000       0.0000       0.0000      0.13513E-01   0.0000       0.0000     -0.13513E-01   0.0000       0.0000       0.0000       0.0000       0.0000      0.19278E-09
 
 SOLVING FOR HEAD 
MODFLOW ITER.#  NEWTON-RAPHSON ITER.#   MAXIMUM NODE HEAD CHANGE
         1                   1                  0.0000000000
         1                   2                  0.0000000000
         1                   3                  0.0000000000
     1 CALLS TO PCG ROUTINE FOR TIME STEP   8 IN STRESS PERIOD    2
     1 TOTAL ITERATIONS
MODFLOW ITER.#  NEWTON-RAPHSON ITER.#   MAXIMUM NODE HEAD CHANGE
         1                   1                  0.0000000000
         1                   2                  0.0000000000
         1                   3                  0.0000000000

 NO OUTPUT CONTROL FOR STRESS PERIOD    2   TIME STEP   8
 
 
 CFPM1 CRITERION OF CONVERGENCE:     0.1000000E-05
 CFPM1 MAXIMUM NUMBER OF ITERATIONS:   100
 
 
 CFPM1 RESULTS +++++++++++++++++++++++++++++++++++++++++++++++++++++++
 
 STRESS PERIOD/TIME STEP           2           8
 
NUMBER OF NEWTON RHAPSON ITERATIONS:     3
 
 ------- RESULTS OF FLOW CALCULATION -------
 
NODE# NODE HEAD[M] MATRIX HEAD [M] EXCHANGE [M^3/D]    CADSFLOW            PFPSFLOW         DIRECT RECHARGE        QWELL         FHLQ            CAUCHY         CAUCHY LQ               QLH              QFIX
    1  20.00000      20.00009       -0.7023531E-02       0.000000           0.000000           0.000000        0.000000         0.000000         0.000000         0.000000         0.000000         0.000000    
    2  20.00    FIX  20.00000           0.0000           0.000000           0.000000           0.000000        0.000000         0.000000         0.000000         0.000000         0.000000       -0.1614632    
    3  20.00000      20.00009       -0.2007046E-01       0.000000           0.000000           0.000000        0.000000         0.000000         0.000000         0.000000         0.000000         0.000000    
    4  20.00000      20.00013       -0.2085666E-01       0.000000           0.000000          0.1000000        0.000000         0.000000         0.000000         0.000000         0.000000         0.000000    
    5  20.00000      20.00017       -0.1351258E-01       0.000000           0.000000           0.000000        0.000000         0.000000         0.000000         0.000000         0.000000         0.000000    
 
TUBE  B  E  FLOW          Q [M^3/D]       DIAM.[M]        LEN.[M]        RE         RESIDENCE TIME [D]
   1   1   3   LAMI.         0.00702        0.10000       10.00000        1.15890       11.18238
   2   2   3   TURB.        -0.16146        0.10000       10.00000       26.64193        0.48643
   3   3   4   TURB.        -0.13437        0.10000       10.00000       22.17134        0.58451
   4   4   5   LAMI.        -0.01351        0.10000       10.00000        2.22962        5.81235
 

    BUDGET OF THE PIPE SYSTEM OF TIMESTEP    8 IN STRESS PERIOD    2
------------------------------------------------------------------------

  TOTAL SIMULATION TIME   180.000000000000      S
 
       CUMULATIVE VALUES (L**3)           RATES THIS TIME STEP (L**3/T)

            IN:                               IN:
     CONSTANT HEAD =   0.0000000          CONSTANT HEAD =   0.0000000    
   MATRIX EXCHANGE =   23.340280        MATRIX EXCHANGE =  0.61463236E-01
     PIPE RECHARGE =   38.000000          PIPE RECHARGE =  0.10000000    
       PFP STORAGE =   0.0000000            PFP STORAGE =   0.0000000    

     CUMULATIVE IN =   61.340280               TOTAL IN =  0.16146324    

           OUT:                               OUT:
     CONSTANT HEAD =   61.340280          CONSTANT HEAD =  0.16146323    
   MATRIX EXCHANGE =   0.0000000        MATRIX EXCHANGE =   0.0000000    
     PIPE RECHARGE =   0.0000000          PIPE RECHARGE =   0.0000000    
       PFP STORAGE =   0.0000000            PFP STORAGE =   0.0000000    

    CUMULATIVE OUT =   61.340280              TOTAL OUT =  0.16146323    

          IN - OUT =  0.70829191E-07           IN - OUT =  0.13794979E-08
     PERCENT ERROR =  0.00                PERCENT ERROR =  0.00


 
 ------------------------NODE WATER BUDGET-----------------------
  STRESS PERIOD           2  TIME STEP           8
 TOTAL SIMULATION TIME   180.000000000000     
 
 FLOW TO THE NODE IN M^3/D
 
 NODE   FIXED HEAD     RECHARGE        QWELL  MATRIX EXCH      STORAGE      TUBE_IN     TUBE_OUT         CADS     FHLQ(LQ)       CAUCHY   CAUCHY(LQ)          QLH     IN - OUT
   1     0.0000       0.0000       0.0000      0.70235E-02   0.0000       0.0000     -0.70235E-02   0.0000       0.0000       0.0000       0.0000       0.0000     -0.21622E-09
   2   -0.16146       0.0000       0.0000       0.0000       0.0000      0.16146       0.0000       0.0000       0.0000       0.0000       0.0000       0.0000       0.0000    
   3     0.0000       0.0000       0.0000      0.20070E-01   0.0000      0.14139     -0.16146       0.0000       0.0000       0.0000       0.0000       0.0000      0.16557E-08
   4     0.0000      0.10000       0.0000      0.20857E-01   0.0000      0.13513E-01 -0.13437       0.0000       0.0000       0.0000       0.0000       0.0000     -0.28861E-10
   5     0.0000       0.0000       0.0000      0.13513E-01   0.0000       0.0000     -0.13513E-01   0.0000       0.0000       0.0000       0.0000       0.0000     -0.31168E-10
 
 SOLVING FOR HEAD 
MODFLOW ITER.#  NEWTON-RAPHSON ITER.#   MAXIMUM NODE HEAD CHANGE
         1                   1                  0.0000000000
         1                   2                  0.0000000000
         1                   3                  0.0000000000
     1 CALLS TO PCG ROUTINE FOR TIME STEP   9 IN STRESS PERIOD    2
     1 TOTAL ITERATIONS
MODFLOW ITER.#  NEWTON-RAPHSON ITER.#   MAXIMUM NODE HEAD CHANGE
         1                   1                  0.0000000000
         1                   2                  0.0000000000
         1                   3                  0.0000000000

 NO OUTPUT CONTROL FOR STRESS PERIOD    2   TIME STEP   9
 
 
 CFPM1 CRITERION OF CONVERGENCE:     0.1000000E-05
 CFPM1 MAXIMUM NUMBER OF ITERATIONS:   100
 
 
 CFPM1 RESULTS +++++++++++++++++++++++++++++++++++++++++++++++++++++++
 
 STRESS PERIOD/TIME STEP           2           9
 
NUMBER OF NEWTON RHAPSON ITERATIONS:     3
 
 ------- RESULTS OF FLOW CALCULATION -------
 
NODE# NODE HEAD[M] MATRIX HEAD [M] EXCHANGE [M^3/D]    CADSFLOW            PFPSFLOW         DIRECT RECHARGE        QWELL         FHLQ            CAUCHY         CAUCHY LQ               QLH              QFIX
    1  20.00000      20.00009       -0.7023530E-02       0.000000           0.000000           0.000000        0.000000         0.000000         0.000000         0.000000         0.000000         0.000000    
    2  20.00    FIX  20.00000           0.0000           0.000000           0.000000           0.000000        0.000000         0.000000         0.000000         0.000000         0.000000       -0.1614632    
    3  20.00000      20.00009       -0.2007046E-01       0.000000           0.000000           0.000000        0.000000         0.000000         0.000000         0.000000         0.000000         0.000000    
    4  20.00000      20.00013       -0.2085666E-01       0.000000           0.000000          0.1000000        0.000000         0.000000         0.000000         0.000000         0.000000         0.000000    
    5  20.00000      20.00017       -0.1351258E-01       0.000000           0.000000           0.000000        0.000000         0.000000         0.000000         0.000000         0.000000         0.000000    
 
TUBE  B  E  FLOW          Q [M^3/D]       DIAM.[M]        LEN.[M]        RE         RESIDENCE TIME [D]
   1   1   3   LAMI.         0.00702        0.10000       10.00000        1.15890       11.18239
   2   2   3   TURB.        -0.16146        0.10000       10.00000       26.64193        0.48643
   3   3   4   TURB.        -0.13437        0.10000       10.00000       22.17134        0.58451
   4   4   5   LAMI.        -0.01351        0.10000       10.00000        2.22962        5.81235
 

    BUDGET OF THE PIPE SYSTEM OF TIMESTEP    9 IN STRESS PERIOD    2
------------------------------------------------------------------------

  TOTAL SIMULATION TIME   190.000000000000      S
 
       CUMULATIVE VALUES (L**3)           RATES THIS TIME STEP (L**3/T)

            IN:                               IN:
     CONSTANT HEAD =   0.0000000          CONSTANT HEAD =   0.0000000    
   MATRIX EXCHANGE =   23.954912        MATRIX EXCHANGE =  0.61463230E-01
     PIPE RECHARGE =   39.000000          PIPE RECHARGE =  0.10000000    
       PFP STORAGE =   0.0000000            PFP STORAGE =   0.0000000    

     CUMULATIVE IN =   62.954912               TOTAL IN =  0.16146323    

           OUT:                               OUT:
     CONSTANT HEAD =   62.954912          CONSTANT HEAD =  0.16146323    
   MATRIX EXCHANGE =   0.0000000        MATRIX EXCHANGE =   0.0000000    
     PIPE RECHARGE =   0.0000000          PIPE RECHARGE =   0.0000000    
       PFP STORAGE =   0.0000000            PFP STORAGE =   0.0000000    

    CUMULATIVE OUT =   62.954912              TOTAL OUT =  0.16146323    

          IN - OUT =  0.55324911E-07           IN - OUT = -0.15504280E-08
     PERCENT ERROR =  0.00                PERCENT ERROR =  0.00


 
 ------------------------NODE WATER BUDGET-----------------------
  STRESS PERIOD           2  TIME STEP           9
 TOTAL SIMULATION TIME   190.000000000000     
 
 FLOW TO THE NODE IN M^3/D
 
 NODE   FIXED HEAD     RECHARGE        QWELL  MATRIX EXCH      STORAGE      TUBE_IN     TUBE_OUT         CADS     FHLQ(LQ)       CAUCHY   CAUCHY(LQ)          QLH     IN - OUT
   1     0.0000       0.0000       0.0000      0.70235E-02   0.0000       0.0000     -0.70235E-02   0.0000       0.0000       0.0000       0.0000       0.0000      0.60536E-09
   2   -0.16146       0.0000       0.0000       0.0000       0.0000      0.16146       0.0000       0.0000       0.0000       0.0000       0.0000       0.0000       0.0000    
   3     0.0000       0.0000       0.0000      0.20070E-01   0.0000      0.14139     -0.16146       0.0000       0.0000       0.0000       0.0000       0.0000     -0.25595E-08
   4     0.0000      0.10000       0.0000      0.20857E-01   0.0000      0.13513E-01 -0.13437       0.0000       0.0000       0.0000       0.0000       0.0000      0.35068E-09
   5     0.0000       0.0000       0.0000      0.13513E-01   0.0000       0.0000     -0.13513E-01   0.0000       0.0000       0.0000       0.0000       0.0000      0.53014E-10
 
 SOLVING FOR HEAD 
MODFLOW ITER.#  NEWTON-RAPHSON ITER.#   MAXIMUM NODE HEAD CHANGE
         1                   1                  0.0000000000
         1                   2                  0.0000000000
         1                   3                  0.0000000000
     1 CALLS TO PCG ROUTINE FOR TIME STEP  10 IN STRESS PERIOD    2
     1 TOTAL ITERATIONS

 MAXIMUM HEAD CHANGE FOR EACH ITERATION (1 INDICATES THE FIRST INNER ITERATION):

    HEAD CHANGE    HEAD CHANGE    HEAD CHANGE    HEAD CHANGE    HEAD CHANGE 
   LAYER,ROW,COL  LAYER,ROW,COL  LAYER,ROW,COL  LAYER,ROW,COL  LAYER,ROW,COL
 ---------------------------------------------------------------------------
  1 -0.2752E-10
   (  3,  1,  4)

 MAXIMUM RESIDUAL FOR EACH ITERATION (1 INDICATES THE FIRST INNER ITERATION):

    RESIDUAL       RESIDUAL       RESIDUAL       RESIDUAL       RESIDUAL    
   LAYER,ROW,COL  LAYER,ROW,COL  LAYER,ROW,COL  LAYER,ROW,COL  LAYER,ROW,COL
 ---------------------------------------------------------------------------
  1  0.1772E-07
   (  3,  2,  3)


MODFLOW ITER.#  NEWTON-RAPHSON ITER.#   MAXIMUM NODE HEAD CHANGE
         1                   1                  0.0000000000
         1                   2                  0.0000000000
         1                   3                  0.0000000000

 NO OUTPUT CONTROL FOR STRESS PERIOD    2   TIME STEP  10
 
 
 CFPM1 CRITERION OF CONVERGENCE:     0.1000000E-05
 CFPM1 MAXIMUM NUMBER OF ITERATIONS:   100
 
 
 CFPM1 RESULTS +++++++++++++++++++++++++++++++++++++++++++++++++++++++
 
 STRESS PERIOD/TIME STEP           2          10
 
NUMBER OF NEWTON RHAPSON ITERATIONS:     3
 
 ------- RESULTS OF FLOW CALCULATION -------
 
NODE# NODE HEAD[M] MATRIX HEAD [M] EXCHANGE [M^3/D]    CADSFLOW            PFPSFLOW         DIRECT RECHARGE        QWELL         FHLQ            CAUCHY         CAUCHY LQ               QLH              QFIX
    1  20.00000      20.00009       -0.7023530E-02       0.000000           0.000000           0.000000        0.000000         0.000000         0.000000         0.000000         0.000000         0.000000    
    2  20.00    FIX  20.00000           0.0000           0.000000           0.000000           0.000000        0.000000         0.000000         0.000000         0.000000         0.000000       -0.1614632    
    3  20.00000      20.00009       -0.2007046E-01       0.000000           0.000000           0.000000        0.000000         0.000000         0.000000         0.000000         0.000000         0.000000    
    4  20.00000      20.00013       -0.2085666E-01       0.000000           0.000000          0.1000000        0.000000         0.000000         0.000000         0.000000         0.000000         0.000000    
    5  20.00000      20.00017       -0.1351258E-01       0.000000           0.000000           0.000000        0.000000         0.000000         0.000000         0.000000         0.000000         0.000000    
 
TUBE  B  E  FLOW          Q [M^3/D]       DIAM.[M]        LEN.[M]        RE         RESIDENCE TIME [D]
   1   1   3   LAMI.         0.00702        0.10000       10.00000        1.15890       11.18239
   2   2   3   TURB.        -0.16146        0.10000       10.00000       26.64193        0.48643
   3   3   4   TURB.        -0.13437        0.10000       10.00000       22.17134        0.58451
   4   4   5   LAMI.        -0.01351        0.10000       10.00000        2.22962        5.81235
 

    BUDGET OF THE PIPE SYSTEM OF TIMESTEP   10 IN STRESS PERIOD    2
------------------------------------------------------------------------

  TOTAL SIMULATION TIME   200.000000000000      S
 
       CUMULATIVE VALUES (L**3)           RATES THIS TIME STEP (L**3/T)

            IN:                               IN:
     CONSTANT HEAD =   0.0000000          CONSTANT HEAD =   0.0000000    
   MATRIX EXCHANGE =   24.569545        MATRIX EXCHANGE =  0.61463227E-01
     PIPE RECHARGE =   40.000000          PIPE RECHARGE =  0.10000000    
       PFP STORAGE =   0.0000000            PFP STORAGE =   0.0000000    

     CUMULATIVE IN =   64.569545               TOTAL IN =  0.16146323    

           OUT:                               OUT:
     CONSTANT HEAD =   64.569545          CONSTANT HEAD =  0.16146323    
   MATRIX EXCHANGE =   0.0000000        MATRIX EXCHANGE =   0.0000000    
     PIPE RECHARGE =   0.0000000          PIPE RECHARGE =   0.0000000    
       PFP STORAGE =   0.0000000            PFP STORAGE =   0.0000000    

    CUMULATIVE OUT =   64.569545              TOTAL OUT =  0.16146323    

          IN - OUT =  0.43081318E-07           IN - OUT = -0.12243589E-08
     PERCENT ERROR =  0.00                PERCENT ERROR =  0.00


 
 ------------------------NODE WATER BUDGET-----------------------
  STRESS PERIOD           2  TIME STEP          10
 TOTAL SIMULATION TIME   200.000000000000     
 
 FLOW TO THE NODE IN M^3/D
 
 NODE   FIXED HEAD     RECHARGE        QWELL  MATRIX EXCH      STORAGE      TUBE_IN     TUBE_OUT         CADS     FHLQ(LQ)       CAUCHY   CAUCHY(LQ)          QLH     IN - OUT
   1     0.0000       0.0000       0.0000      0.70235E-02   0.0000       0.0000     -0.70235E-02   0.0000       0.0000       0.0000       0.0000       0.0000      0.21192E-09
   2   -0.16146       0.0000       0.0000       0.0000       0.0000      0.16146       0.0000       0.0000       0.0000       0.0000       0.0000       0.0000       0.0000    
   3     0.0000       0.0000       0.0000      0.20070E-01   0.0000      0.14139     -0.16146       0.0000       0.0000       0.0000       0.0000       0.0000     -0.42245E-08
   4     0.0000      0.10000       0.0000      0.20857E-01   0.0000      0.13513E-01 -0.13437       0.0000       0.0000       0.0000       0.0000       0.0000      0.34883E-08
   5     0.0000       0.0000       0.0000      0.13513E-01   0.0000       0.0000     -0.13513E-01   0.0000       0.0000       0.0000       0.0000       0.0000     -0.70009E-09
1
  VOLUMETRIC BUDGET FOR ENTIRE MODEL AT END OF TIME STEP 10 IN STRESS PERIOD   2
  ------------------------------------------------------------------------------

     CUMULATIVE VOLUMES      L**3       RATES FOR THIS TIME STEP      L**3/T
     ------------------                 ------------------------

           IN:                                      IN:
           ---                                      ---
             STORAGE =       1.9335E-05               STORAGE =       6.6710E-14
       CONSTANT HEAD =           0.0000         CONSTANT HEAD =           0.0000
            RECHARGE =         440.0000              RECHARGE =           1.1000
               PIPES =           0.0000                 PIPES =           0.0000

            TOTAL IN =         440.0000              TOTAL IN =           1.1000

          OUT:                                     OUT:
          ----                                     ----
             STORAGE =       3.2678E-12               STORAGE =           0.0000
       CONSTANT HEAD =         415.4302         CONSTANT HEAD =           1.0385
            RECHARGE =           0.0000              RECHARGE =           0.0000
               PIPES =          24.5695                 PIPES =       6.1463E-02

           TOTAL OUT =         439.9998             TOTAL OUT =           1.1000

            IN - OUT =       2.6338E-04              IN - OUT =      -1.2984E-07

 PERCENT DISCREPANCY =           0.00     PERCENT DISCREPANCY =           0.00






          TIME SUMMARY AT END OF TIME STEP  10 IN STRESS PERIOD    2
                    SECONDS     MINUTES      HOURS       DAYS        YEARS
                    -----------------------------------------------------------
   TIME STEP LENGTH 8.64000E+05  14400.      240.00      10.000     2.73785E-02
 STRESS PERIOD TIME 8.64000E+06 1.44000E+05  2400.0      100.00     0.27379    
         TOTAL TIME 1.72800E+07 2.88000E+05  4800.0      200.00     0.54757    
1
1
                            STRESS PERIOD NO.    3, LENGTH =   100.0000    
                            -----------------------------------------------

                              NUMBER OF TIME STEPS =    10

                               MULTIPLIER FOR DELT =     1.000

                            INITIAL TIME STEP SIZE =   10.00000    



                           RECHARGE
 READING ON UNIT   19 WITH FORMAT: (4E15.6)            
 
 CFP1RCH1RP SUBROUTINE READING FROM UNIT           53
  READING INPUT USED TO PARTICIAN RECHARGE
 0.0    0.0    0.0    1.0    0.0   
 
 SOLVING FOR HEAD 
MODFLOW ITER.#  NEWTON-RAPHSON ITER.#   MAXIMUM NODE HEAD CHANGE
         1                   1                  0.0000001973
[...]

    CUMULATIVE OUT =   167.88095              TOTAL OUT =  0.32287177    

          IN - OUT =  0.10992626E-06           IN - OUT =  0.69958497E-09
     PERCENT ERROR =  0.00                PERCENT ERROR =  0.00


 
 ------------------------NODE WATER BUDGET-----------------------
  STRESS PERIOD           5  TIME STEP           7
 TOTAL SIMULATION TIME   470.000000000000     
 
 FLOW TO THE NODE IN M^3/D
 
 NODE   FIXED HEAD     RECHARGE        QWELL  MATRIX EXCH      STORAGE      TUBE_IN     TUBE_OUT         CADS     FHLQ(LQ)       CAUCHY   CAUCHY(LQ)          QLH     IN - OUT
   1     0.0000       0.0000       0.0000      0.14041E-01   0.0000       0.0000     -0.14041E-01   0.0000       0.0000       0.0000       0.0000       0.0000      0.11892E-09
   2   -0.32287       0.0000       0.0000       0.0000       0.0000      0.32287       0.0000       0.0000       0.0000       0.0000       0.0000       0.0000       0.0000    
   3     0.0000       0.0000       0.0000      0.40123E-01   0.0000      0.28275     -0.32287       0.0000       0.0000       0.0000       0.0000       0.0000      0.10849E-08
   4     0.0000      0.20000       0.0000      0.41693E-01   0.0000      0.27015E-01 -0.26871       0.0000       0.0000       0.0000       0.0000       0.0000     -0.72345E-09
   5     0.0000       0.0000       0.0000      0.27015E-01   0.0000       0.0000     -0.27015E-01   0.0000       0.0000       0.0000       0.0000       0.0000      0.21919E-09
 
 SOLVING FOR HEAD 
MODFLOW ITER.#  NEWTON-RAPHSON ITER.#   MAXIMUM NODE HEAD CHANGE
         1                   1                  0.0000000000
         1                   2                  0.0000000000
         1                   3                  0.0000000000
     1 CALLS TO PCG ROUTINE FOR TIME STEP   8 IN STRESS PERIOD    5
     1 TOTAL ITERATIONS
MODFLOW ITER.#  NEWTON-RAPHSON ITER.#   MAXIMUM NODE HEAD CHANGE
         1                   1                  0.0000000000
         1                   2                  0.0000000000
         1                   3                  0.0000000000

 NO OUTPUT CONTROL FOR STRESS PERIOD    5   TIME STEP   8
 
 
 CFPM1 CRITERION OF CONVERGENCE:     0.1000000E-05
 CFPM1 MAXIMUM NUMBER OF ITERATIONS:   100
 
 
 CFPM1 RESULTS +++++++++++++++++++++++++++++++++++++++++++++++++++++++
 
 STRESS PERIOD/TIME STEP           5           8
 
NUMBER OF NEWTON RHAPSON ITERATIONS:     3
 
 ------- RESULTS OF FLOW CALCULATION -------
 
NODE# NODE HEAD[M] MATRIX HEAD [M] EXCHANGE [M^3/D]    CADSFLOW            PFPSFLOW         DIRECT RECHARGE        QWELL         FHLQ            CAUCHY         CAUCHY LQ               QLH              QFIX
    1  20.00000      20.00018       -0.1404099E-01       0.000000           0.000000           0.000000        0.000000         0.000000         0.000000         0.000000         0.000000         0.000000    
    2  20.00    FIX  20.00000           0.0000           0.000000           0.000000           0.000000        0.000000         0.000000         0.000000         0.000000         0.000000       -0.3228718    
    3  20.00000      20.00017       -0.4012310E-01       0.000000           0.000000           0.000000        0.000000         0.000000         0.000000         0.000000         0.000000         0.000000    
    4  20.00000      20.00027       -0.4169276E-01       0.000000           0.000000          0.2000000        0.000000         0.000000         0.000000         0.000000         0.000000         0.000000    
    5  20.00000      20.00034       -0.2701490E-01       0.000000           0.000000           0.000000        0.000000         0.000000         0.000000         0.000000         0.000000         0.000000    
 
TUBE  B  E  FLOW          Q [M^3/D]       DIAM.[M]        LEN.[M]        RE         RESIDENCE TIME [D]
   1   1   3   LAMI.         0.01404        0.10000       10.00000        2.31681        5.59361
   2   2   3   TURB.        -0.32287        0.10000       10.00000       53.27483        0.24325
   3   3   4   TURB.        -0.26871        0.10000       10.00000       44.33759        0.29229
   4   4   5   LAMI.        -0.02701        0.10000       10.00000        4.45754        2.90728
 

    BUDGET OF THE PIPE SYSTEM OF TIMESTEP    8 IN STRESS PERIOD    5
------------------------------------------------------------------------

  TOTAL SIMULATION TIME   480.000000000000      S
 
       CUMULATIVE VALUES (L**3)           RATES THIS TIME STEP (L**3/T)

            IN:                               IN:
     CONSTANT HEAD =   0.0000000          CONSTANT HEAD =   0.0000000    
   MATRIX EXCHANGE =   65.109670        MATRIX EXCHANGE =  0.12287175    
     PIPE RECHARGE =   106.00000          PIPE RECHARGE =  0.20000000    
       PFP STORAGE =   0.0000000            PFP STORAGE =   0.0000000    

     CUMULATIVE IN =   171.10967               TOTAL IN =  0.32287175    

           OUT:                               OUT:
     CONSTANT HEAD =   171.10967          CONSTANT HEAD =  0.32287175    
   MATRIX EXCHANGE =   0.0000000        MATRIX EXCHANGE =   0.0000000    
     PIPE RECHARGE =   0.0000000          PIPE RECHARGE =   0.0000000    
       PFP STORAGE =   0.0000000            PFP STORAGE =   0.0000000    

    CUMULATIVE OUT =   171.10967              TOTAL OUT =  0.32287175    

          IN - OUT =  0.10376121E-06           IN - OUT = -0.61650457E-09
     PERCENT ERROR =  0.00                PERCENT ERROR =  0.00


 
 ------------------------NODE WATER BUDGET-----------------------
  STRESS PERIOD           5  TIME STEP           8
 TOTAL SIMULATION TIME   480.000000000000     
 
 FLOW TO THE NODE IN M^3/D
 
 NODE   FIXED HEAD     RECHARGE        QWELL  MATRIX EXCH      STORAGE      TUBE_IN     TUBE_OUT         CADS     FHLQ(LQ)       CAUCHY   CAUCHY(LQ)          QLH     IN - OUT
   1     0.0000       0.0000       0.0000      0.14041E-01   0.0000       0.0000     -0.14041E-01   0.0000       0.0000       0.0000       0.0000       0.0000      0.19280E-09
   2   -0.32287       0.0000       0.0000       0.0000       0.0000      0.32287       0.0000       0.0000       0.0000       0.0000       0.0000       0.0000       0.0000    
   3     0.0000       0.0000       0.0000      0.40123E-01   0.0000      0.28275     -0.32287       0.0000       0.0000       0.0000       0.0000       0.0000     -0.72363E-09
   4     0.0000      0.20000       0.0000      0.41693E-01   0.0000      0.27015E-01 -0.26871       0.0000       0.0000       0.0000       0.0000       0.0000     -0.50015E-09
   5     0.0000       0.0000       0.0000      0.27015E-01   0.0000       0.0000     -0.27015E-01   0.0000       0.0000       0.0000       0.0000       0.0000      0.41447E-09
 
 SOLVING FOR HEAD 
MODFLOW ITER.#  NEWTON-RAPHSON ITER.#   MAXIMUM NODE HEAD CHANGE
         1                   1                  0.0000000000
         1                   2                  0.0000000000
         1                   3                  0.0000000000
     1 CALLS TO PCG ROUTINE FOR TIME STEP   9 IN STRESS PERIOD    5
     1 TOTAL ITERATIONS
MODFLOW ITER.#  NEWTON-RAPHSON ITER.#   MAXIMUM NODE HEAD CHANGE
         1                   1                  0.0000000000
         1                   2                  0.0000000000
         1                   3                  0.0000000000

 NO OUTPUT CONTROL FOR STRESS PERIOD    5   TIME STEP   9
 
 
 CFPM1 CRITERION OF CONVERGENCE:     0.1000000E-05
 CFPM1 MAXIMUM NUMBER OF ITERATIONS:   100
 
 
 CFPM1 RESULTS +++++++++++++++++++++++++++++++++++++++++++++++++++++++
 
 STRESS PERIOD/TIME STEP           5           9
 
NUMBER OF NEWTON RHAPSON ITERATIONS:     3
 
 ------- RESULTS OF FLOW CALCULATION -------
 
NODE# NODE HEAD[M] MATRIX HEAD [M] EXCHANGE [M^3/D]    CADSFLOW            PFPSFLOW         DIRECT RECHARGE        QWELL         FHLQ            CAUCHY         CAUCHY LQ               QLH              QFIX
    1  20.00000      20.00018       -0.1404098E-01       0.000000           0.000000           0.000000        0.000000         0.000000         0.000000         0.000000         0.000000         0.000000    
    2  20.00    FIX  20.00000           0.0000           0.000000           0.000000           0.000000        0.000000         0.000000         0.000000         0.000000         0.000000       -0.3228717    
    3  20.00000      20.00017       -0.4012309E-01       0.000000           0.000000           0.000000        0.000000         0.000000         0.000000         0.000000         0.000000         0.000000    
    4  20.00000      20.00027       -0.4169275E-01       0.000000           0.000000          0.2000000        0.000000         0.000000         0.000000         0.000000         0.000000         0.000000    
    5  20.00000      20.00034       -0.2701490E-01       0.000000           0.000000           0.000000        0.000000         0.000000         0.000000         0.000000         0.000000         0.000000    
 
TUBE  B  E  FLOW          Q [M^3/D]       DIAM.[M]        LEN.[M]        RE         RESIDENCE TIME [D]
   1   1   3   LAMI.         0.01404        0.10000       10.00000        2.31681        5.59361
   2   2   3   TURB.        -0.32287        0.10000       10.00000       53.27483        0.24325
   3   3   4   TURB.        -0.26871        0.10000       10.00000       44.33759        0.29229
   4   4   5   LAMI.        -0.02701        0.10000       10.00000        4.45754        2.90728
 

    BUDGET OF THE PIPE SYSTEM OF TIMESTEP    9 IN STRESS PERIOD    5
------------------------------------------------------------------------

  TOTAL SIMULATION TIME   490.000000000000      S
 
       CUMULATIVE VALUES (L**3)           RATES THIS TIME STEP (L**3/T)

            IN:                               IN:
     CONSTANT HEAD =   0.0000000          CONSTANT HEAD =   0.0000000    
   MATRIX EXCHANGE =   66.338387        MATRIX EXCHANGE =  0.12287172    
     PIPE RECHARGE =   108.00000          PIPE RECHARGE =  0.20000000    
       PFP STORAGE =   0.0000000            PFP STORAGE =   0.0000000    

     CUMULATIVE IN =   174.33839               TOTAL IN =  0.32287172    

           OUT:                               OUT:
     CONSTANT HEAD =   174.33839          CONSTANT HEAD =  0.32287172    
   MATRIX EXCHANGE =   0.0000000        MATRIX EXCHANGE =   0.0000000    
     PIPE RECHARGE =   0.0000000          PIPE RECHARGE =   0.0000000    
       PFP STORAGE =   0.0000000            PFP STORAGE =   0.0000000    

    CUMULATIVE OUT =   174.33839              TOTAL OUT =  0.32287172    

          IN - OUT =  0.94982695E-07           IN - OUT = -0.87785221E-09
     PERCENT ERROR =  0.00                PERCENT ERROR =  0.00


 
 ------------------------NODE WATER BUDGET-----------------------
  STRESS PERIOD           5  TIME STEP           9
 TOTAL SIMULATION TIME   490.000000000000     
 
 FLOW TO THE NODE IN M^3/D
 
 NODE   FIXED HEAD     RECHARGE        QWELL  MATRIX EXCH      STORAGE      TUBE_IN     TUBE_OUT         CADS     FHLQ(LQ)       CAUCHY   CAUCHY(LQ)          QLH     IN - OUT
   1     0.0000       0.0000       0.0000      0.14041E-01   0.0000       0.0000     -0.14041E-01   0.0000       0.0000       0.0000       0.0000       0.0000      0.13471E-09
   2   -0.32287       0.0000       0.0000       0.0000       0.0000      0.32287       0.0000       0.0000       0.0000       0.0000       0.0000       0.0000       0.0000    
   3     0.0000       0.0000       0.0000      0.40123E-01   0.0000      0.28275     -0.32287       0.0000       0.0000       0.0000       0.0000       0.0000     -0.32966E-08
   4     0.0000      0.20000       0.0000      0.41693E-01   0.0000      0.27015E-01 -0.26871       0.0000       0.0000       0.0000       0.0000       0.0000      0.27220E-08
   5     0.0000       0.0000       0.0000      0.27015E-01   0.0000       0.0000     -0.27015E-01   0.0000       0.0000       0.0000       0.0000       0.0000     -0.43794E-09
 
 SOLVING FOR HEAD 
MODFLOW ITER.#  NEWTON-RAPHSON ITER.#   MAXIMUM NODE HEAD CHANGE
         1                   1                  0.0000000000
         1                   2                  0.0000000000
         1                   3                  0.0000000000
     1 CALLS TO PCG ROUTINE FOR TIME STEP  10 IN STRESS PERIOD    5
     1 TOTAL ITERATIONS

 MAXIMUM HEAD CHANGE FOR EACH ITERATION (1 INDICATES THE FIRST INNER ITERATION):

    HEAD CHANGE    HEAD CHANGE    HEAD CHANGE    HEAD CHANGE    HEAD CHANGE 
   LAYER,ROW,COL  LAYER,ROW,COL  LAYER,ROW,COL  LAYER,ROW,COL  LAYER,ROW,COL
 ---------------------------------------------------------------------------
  1 -0.9737E-10
   (  3,  1,  4)

 MAXIMUM RESIDUAL FOR EACH ITERATION (1 INDICATES THE FIRST INNER ITERATION):

    RESIDUAL       RESIDUAL       RESIDUAL       RESIDUAL       RESIDUAL    
   LAYER,ROW,COL  LAYER,ROW,COL  LAYER,ROW,COL  LAYER,ROW,COL  LAYER,ROW,COL
 ---------------------------------------------------------------------------
  1  0.6136E-07
   (  3,  2,  3)


MODFLOW ITER.#  NEWTON-RAPHSON ITER.#   MAXIMUM NODE HEAD CHANGE
         1                   1                  0.0000000000
         1                   2                  0.0000000000
         1                   3                  0.0000000000

 NO OUTPUT CONTROL FOR STRESS PERIOD    5   TIME STEP  10
 
 
 CFPM1 CRITERION OF CONVERGENCE:     0.1000000E-05
 CFPM1 MAXIMUM NUMBER OF ITERATIONS:   100
 
 
 CFPM1 RESULTS +++++++++++++++++++++++++++++++++++++++++++++++++++++++
 
 STRESS PERIOD/TIME STEP           5          10
 
NUMBER OF NEWTON RHAPSON ITERATIONS:     3
 
 ------- RESULTS OF FLOW CALCULATION -------
 
NODE# NODE HEAD[M] MATRIX HEAD [M] EXCHANGE [M^3/D]    CADSFLOW            PFPSFLOW         DIRECT RECHARGE        QWELL         FHLQ            CAUCHY         CAUCHY LQ               QLH              QFIX
    1  20.00000      20.00018       -0.1404098E-01       0.000000           0.000000           0.000000        0.000000         0.000000         0.000000         0.000000         0.000000         0.000000    
    2  20.00    FIX  20.00000           0.0000           0.000000           0.000000           0.000000        0.000000         0.000000         0.000000         0.000000         0.000000       -0.3228717    
    3  20.00000      20.00017       -0.4012309E-01       0.000000           0.000000           0.000000        0.000000         0.000000         0.000000         0.000000         0.000000         0.000000    
    4  20.00000      20.00027       -0.4169275E-01       0.000000           0.000000          0.2000000        0.000000         0.000000         0.000000         0.000000         0.000000         0.000000    
    5  20.00000      20.00034       -0.2701490E-01       0.000000           0.000000           0.000000        0.000000         0.000000         0.000000         0.000000         0.000000         0.000000    
 
TUBE  B  E  FLOW          Q [M^3/D]       DIAM.[M]        LEN.[M]        RE         RESIDENCE TIME [D]
   1   1   3   LAMI.         0.01404        0.10000       10.00000        2.31681        5.59361
   2   2   3   TURB.        -0.32287        0.10000       10.00000       53.27482        0.24325
   3   3   4   TURB.        -0.26871        0.10000       10.00000       44.33759        0.29229
   4   4   5   LAMI.        -0.02701        0.10000       10.00000        4.45754        2.90728
 

    BUDGET OF THE PIPE SYSTEM OF TIMESTEP   10 IN STRESS PERIOD    5
------------------------------------------------------------------------

  TOTAL SIMULATION TIME   500.000000000000      S
 
       CUMULATIVE VALUES (L**3)           RATES THIS TIME STEP (L**3/T)

            IN:                               IN:
     CONSTANT HEAD =   0.0000000          CONSTANT HEAD =   0.0000000    
   MATRIX EXCHANGE =   67.567104        MATRIX EXCHANGE =  0.12287171    
     PIPE RECHARGE =   110.00000          PIPE RECHARGE =  0.20000000    
       PFP STORAGE =   0.0000000            PFP STORAGE =   0.0000000    

     CUMULATIVE IN =   177.56710               TOTAL IN =  0.32287171    

           OUT:                               OUT:
     CONSTANT HEAD =   177.56710          CONSTANT HEAD =  0.32287171    
   MATRIX EXCHANGE =   0.0000000        MATRIX EXCHANGE =   0.0000000    
     PIPE RECHARGE =   0.0000000          PIPE RECHARGE =   0.0000000    
       PFP STORAGE =   0.0000000            PFP STORAGE =   0.0000000    

    CUMULATIVE OUT =   177.56710              TOTAL OUT =  0.32287171    

          IN - OUT =  0.10407371E-06           IN - OUT =  0.90909973E-09
     PERCENT ERROR =  0.00                PERCENT ERROR =  0.00


 
 ------------------------NODE WATER BUDGET-----------------------
  STRESS PERIOD           5  TIME STEP          10
 TOTAL SIMULATION TIME   500.000000000000     
 
 FLOW TO THE NODE IN M^3/D
 
 NODE   FIXED HEAD     RECHARGE        QWELL  MATRIX EXCH      STORAGE      TUBE_IN     TUBE_OUT         CADS     FHLQ(LQ)       CAUCHY   CAUCHY(LQ)          QLH     IN - OUT
   1     0.0000       0.0000       0.0000      0.14041E-01   0.0000       0.0000     -0.14041E-01   0.0000       0.0000       0.0000       0.0000       0.0000     -0.30401E-09
   2   -0.32287       0.0000       0.0000       0.0000       0.0000      0.32287       0.0000       0.0000       0.0000       0.0000       0.0000       0.0000       0.0000    
   3     0.0000       0.0000       0.0000      0.40123E-01   0.0000      0.28275     -0.32287       0.0000       0.0000       0.0000       0.0000       0.0000      0.31695E-08
   4     0.0000      0.20000       0.0000      0.41693E-01   0.0000      0.27015E-01 -0.26871       0.0000       0.0000       0.0000       0.0000       0.0000     -0.24341E-08
   5     0.0000       0.0000       0.0000      0.27015E-01   0.0000       0.0000     -0.27015E-01   0.0000       0.0000       0.0000       0.0000       0.0000      0.47777E-09
1
  VOLUMETRIC BUDGET FOR ENTIRE MODEL AT END OF TIME STEP 10 IN STRESS PERIOD   5
  ------------------------------------------------------------------------------

     CUMULATIVE VOLUMES      L**3       RATES FOR THIS TIME STEP      L**3/T
     ------------------                 ------------------------

           IN:                                      IN:
           ---                                      ---
             STORAGE =       2.9002E-05               STORAGE =       2.1907E-13
       CONSTANT HEAD =           0.0000         CONSTANT HEAD =           0.0000
            RECHARGE =        1210.0000              RECHARGE =           2.2000
               PIPES =           0.0000                 PIPES =           0.0000

            TOTAL IN =        1210.0000              TOTAL IN =           2.2000

          OUT:                                     OUT:
          ----                                     ----
             STORAGE =       1.9335E-05               STORAGE =           0.0000
       CONSTANT HEAD =        1142.4326         CONSTANT HEAD =           2.0771
            RECHARGE =           0.0000              RECHARGE =           0.0000
               PIPES =          67.5671                 PIPES =           0.1229

           TOTAL OUT =        1209.9997             TOTAL OUT =           2.2000

            IN - OUT =       3.3232E-04              IN - OUT =      -4.7895E-07

 PERCENT DISCREPANCY =           0.00     PERCENT DISCREPANCY =           0.00






          TIME SUMMARY AT END OF TIME STEP  10 IN STRESS PERIOD    5
                    SECONDS     MINUTES      HOURS       DAYS        YEARS
                    -----------------------------------------------------------
   TIME STEP LENGTH 8.64000E+05  14400.      240.00      10.000     2.73785E-02
 STRESS PERIOD TIME 8.64000E+06 1.44000E+05  2400.0      100.00     0.27379    
         TOTAL TIME 4.32000E+07 7.20000E+05  12000.      500.00      1.3689    
1

 RUN END DATE AND TIME (YYYY/MM/DD HH:MM:SS): 2022/12/01 13:13:07
 ELAPSED RUN TIME:  0.053 SECONDS

