                                  MODFLOW-2005     
      U.S. GEOLOGICAL SURVEY MODULAR FINITE-DIFFERENCE GROUND-WATER FLOW MODEL
              VERSION 1.9.25 06/04/2013 CFPv2 HTM/STM/UMT-LNK/CADS

           THIS IS A RESEARCH VERSION OF CFP MODE 1 FOR TEST PURPOSES
                  WITHOUT ANY WARRANTY REGARDING CORRECTNESS

           CONTACT: THOMAS.REIMANN@TU-DRESDEN.DE / BSHOEMAK@USGS.GOV


 LIST FILE: CFPy_example_08.list
                         UNIT    2

 OPENING CFPy_example_08.dis
 FILE TYPE:DIS   UNIT   11   STATUS:OLD    
 FORMAT:FORMATTED              ACCESS:SEQUENTIAL          

 OPENING CFPy_example_08.bas
 FILE TYPE:BAS6   UNIT   13   STATUS:OLD    
 FORMAT:FORMATTED              ACCESS:SEQUENTIAL          

 OPENING CFPy_example_08.lpf
 FILE TYPE:LPF   UNIT   15   STATUS:OLD    
 FORMAT:FORMATTED              ACCESS:SEQUENTIAL          

 OPENING CFPy_example_08.oc
 FILE TYPE:OC   UNIT   14   STATUS:OLD    
 FORMAT:FORMATTED              ACCESS:SEQUENTIAL          

 OPENING CFPy_example_08.pcg
 FILE TYPE:PCG   UNIT   27   STATUS:OLD    
 FORMAT:FORMATTED              ACCESS:SEQUENTIAL          

 OPENING CFPy_example_08.rch
 FILE TYPE:RCH   UNIT   19   STATUS:OLD    
 FORMAT:FORMATTED              ACCESS:SEQUENTIAL          

 OPENING CFPy_example_08.hds
 FILE TYPE:DATA(BINARY)   UNIT   51   STATUS:REPLACE
 FORMAT:BINARY                 ACCESS:SEQUENTIAL          

 OPENING CFPy_example_08.cbc
 FILE TYPE:DATA(BINARY)   UNIT   50   STATUS:REPLACE
 FORMAT:BINARY                 ACCESS:SEQUENTIAL          

 OPENING CFPy_example_08.coc
 FILE TYPE:COC   UNIT   54   STATUS:OLD    
 FORMAT:FORMATTED              ACCESS:SEQUENTIAL          

 OPENING CFPy_example_08.cfp
 FILE TYPE:CFP   UNIT   52   STATUS:OLD    
 FORMAT:FORMATTED              ACCESS:SEQUENTIAL          

 OPENING CFPy_example_08.crch
 FILE TYPE:CRCH   UNIT   53   STATUS:OLD    
 FORMAT:FORMATTED              ACCESS:SEQUENTIAL          

 BAS -- BASIC PACKAGE, VERSION 7, 5/2/2005 INPUT READ FROM UNIT   13

 DISCRETIZATION INPUT DATA READ FROM UNIT   11
 # DIS package for MODFLOW-2005 generated by Flopy 3.3.6
    2 LAYERS         5 ROWS         6 COLUMNS
    1 STRESS PERIOD(S) IN SIMULATION
 MODEL TIME UNIT IS DAYS
 MODEL LENGTH UNIT IS METERS
  Confining bed flag for each layer:
   0   0

                     DELR =   100.000    

                     DELC =   100.000    



           TOP ELEVATION OF LAYER 1
 READING ON UNIT   11 WITH FORMAT: (6E15.6)            



             MODEL LAYER BOTTOM EL. FOR LAYER   1
 READING ON UNIT   11 WITH FORMAT: (6E15.6)            



             MODEL LAYER BOTTOM EL. FOR LAYER   2
 READING ON UNIT   11 WITH FORMAT: (6E15.6)            


 STRESS PERIOD     LENGTH       TIME STEPS     MULTIPLIER FOR DELT    SS FLAG
 ----------------------------------------------------------------------------
        1         1.000000          1                    1.000         SS

 STEADY-STATE SIMULATION



 
 # BAS6 package for MODFLOW-2005 generated by Flopy 3.3.6                        
 THE FREE FORMAT OPTION HAS BEEN SELECTED



                     BOUNDARY ARRAY FOR LAYER   1
 READING ON UNIT   13 WITH FORMAT: (6I10)              



                     BOUNDARY ARRAY FOR LAYER   2
 READING ON UNIT   13 WITH FORMAT: (6I10)              

 AQUIFER HEAD WILL BE SET TO  -999.99     AT ALL NO-FLOW NODES (IBOUND=0).



                       INITIAL HEAD FOR LAYER   1
 READING ON UNIT   13 WITH FORMAT: (6E15.6)            



                       INITIAL HEAD FOR LAYER   2
 READING ON UNIT   13 WITH FORMAT: (6E15.6)            
 # OC package for MODFLOW-2005 generated by Flopy 3.3.6

 OUTPUT CONTROL IS SPECIFIED ONLY AT TIME STEPS FOR WHICH OUTPUT IS DESIRED
 COMPACT CELL-BY-CELL BUDGET FILES WILL BE WRITTEN
 AUXILIARY DATA WILL BE SAVED IN CELL-BY-CELL BUDGET FILES
 HEAD PRINT FORMAT CODE IS   0    DRAWDOWN PRINT FORMAT CODE IS   0
 HEADS WILL BE SAVED ON UNIT   51    DRAWDOWNS WILL BE SAVED ON UNIT    0

 LPF -- LAYER-PROPERTY FLOW PACKAGE, VERSION 7, 5/2/2005
         INPUT READ FROM UNIT   15
 # LPF package for MODFLOW-2005 generated by Flopy 3.3.6
 HEAD AT CELLS THAT CONVERT TO DRY= -1.00000E+30
 No named parameters

   LAYER FLAGS:
 LAYER       LAYTYP        LAYAVG         CHANI        LAYVKA        LAYWET
 ---------------------------------------------------------------------------
    1             1             0     1.000E+00             0             0
    2             1             0     1.000E+00             0             0

   INTERPRETATION OF LAYER FLAGS:
                        INTERBLOCK     HORIZONTAL    DATA IN
         LAYER TYPE   TRANSMISSIVITY   ANISOTROPY   ARRAY VKA   WETTABILITY
 LAYER      (LAYTYP)      (LAYAVG)       (CHANI)      (LAYVKA)      (LAYWET)
 ---------------------------------------------------------------------------
    1   CONVERTIBLE      HARMONIC     1.000E+00    VERTICAL K  NON-WETTABLE
    2   CONVERTIBLE      HARMONIC     1.000E+00    VERTICAL K  NON-WETTABLE

 WETTING CAPABILITY IS NOT ACTIVE IN ANY LAYER

    HYD. COND. ALONG ROWS =   100.000     FOR LAYER   1

      VERTICAL HYD. COND. =   10.0000     FOR LAYER   1

    HYD. COND. ALONG ROWS =   100.000     FOR LAYER   2

      VERTICAL HYD. COND. =   10.0000     FOR LAYER   2

 RCH -- RECHARGE PACKAGE, VERSION 7, 5/2/2005 INPUT READ FROM UNIT   19
 # RCH package for MODFLOW-2005 generated by Flopy 3.3.6
 No named parameters
 OPTION 1 -- RECHARGE TO TOP LAYER
 CELL-BY-CELL FLOWS WILL BE SAVED ON UNIT   50


     0 Recharge parameters

 PCG -- CONJUGATE-GRADIENT SOLUTION PACKAGE, VERSION 7, 5/2/2005
 # PCG package for MODFLOW-2005 generated by Flopy 3.3.6
 MAXIMUM OF     20 CALLS OF SOLUTION ROUTINE
 MAXIMUM OF     10 INTERNAL ITERATIONS PER CALL TO SOLUTION ROUTINE
 MATRIX PRECONDITIONING TYPE :    1
 IHCOFADD option -- When an active cell is surrounded by dry cells, convert
 the cell to dry only if storage and head-dependent boundary flow are 0.



                                    SOLUTION BY THE CONJUGATE-GRADIENT METHOD
                                   -------------------------------------------
                    MAXIMUM NUMBER OF CALLS TO PCG ROUTINE =       20
                        MAXIMUM ITERATIONS PER CALL TO PCG =       10
                               MATRIX PRECONDITIONING TYPE =        1
        RELAXATION FACTOR (ONLY USED WITH PRECOND. TYPE 1) =    0.97000E+00
 PARAMETER OF POLYNOMIAL PRECOND. = 2 (2) OR IS CALCULATED :        2
                         HEAD CHANGE CRITERION FOR CLOSURE =    0.10000E-04
                     RESIDUAL CHANGE CRITERION FOR CLOSURE =    0.10000E-04
            PCG HEAD AND RESIDUAL CHANGE PRINTOUT INTERVAL =        5
     PRINTING FROM SOLVER IS LIMITED(1) OR SUPPRESSED (>1) =        0
                            STEADY-STATE DAMPING PARAMETER =    0.10000E+01
                               TRANSIENT DAMPING PARAMETER =    0.10000E+01
 
 CFP1AR READING FROM UNIT          52
 ---------------------------------
 CFP MODE 1 IS ACTIVE (PIPES) 
 ---------------------------------
    NUMBER OF NODES IS    11
    NUMBER OF TUBES IS    10
    NUMBER OF LAYERS IS    2
 GRAVITATIONAL CONSTANT (G) COMPUTED 
 WATER TEMPERATURE, IN DEGREES CELCIUS, IS    25.0000000000000     
  KINEMATIC VISCOSITY [L^2/T]=  7.716459760582384E-002
 
  NBR-ARRAY: 
         1      2     2     1      2     0     0     0     0     0      1     0     0     0     0     0
         2      3     2     1      3     1     0     0     0     0      2     1     0     0     0     0
         3      4     2     1      4     5     2     0     0     0      3     4     2     0     0     0
         4      5     2     1      3     0     0     0     0     0      3     0     0     0     0     0
         5      4     3     1      3     6     0     0     0     0      4     5     0     0     0     0
         6      4     4     1      5    11     0     0     0     0      5    10     0     0     0     0
         7      4     2     2      8    10     0     0     0     0      6     7     0     0     0     0
         8      5     2     2      9     7     0     0     0     0      8     6     0     0     0     0
         9      6     2     2      8     0     0     0     0     0      8     0     0     0     0     0
        10      4     3     2      7    11     0     0     0     0      7     9     0     0     0     0
        11      4     4     2     10     6     0     0     0     0      9    10     0     0     0     0
 NBR ARRAY READ
  NODE ELEVATIONS:
           1   400.000000000000     
           2   450.000000000000     
           3   450.000000000000     
           4   500.000000000000     
           5   450.000000000000     
           6   400.000000000000     
           7   100.000000000000     
           8   50.0000000000000     
           9   100.000000000000     
          10   100.000000000000     
          11  -10.0000000000000     
 FINISHED READING NEWTON RAPHSON ITERATION CONTROLS
 READING NODE AND TUBE DATA
 NO_P  DIAMETER  TORTUOSITY  RHEIGHT  LCRITREY_P TCRITREY_P
   1.     1.000        1.00   0.0100      500.00    5000.00
   2.     1.000        1.00   0.0100      500.00    5000.00
   3.     1.000        1.00   0.0100      500.00    5000.00
   4.     1.000        1.00   0.0100      500.00    5000.00
   5.     1.000        1.00   0.0100      500.00    5000.00
   6.     1.000        1.00   0.0100      500.00    5000.00
   7.     1.000        1.00   0.0100      500.00    5000.00
   8.     1.000        1.00   0.0100      500.00    5000.00
   9.     1.000        1.00   0.0100      500.00    5000.00
  10.     1.000        1.00   0.0100      500.00    5000.00
 READING NODE BOUNDARY CONDITIONS (FIXED HEADS, IBOUNDS, AND FBCs)
  NODE  HEAD AND/OR IBOUND
           1  -1.00000000000000     
           2  -1.00000000000000     
           3  -1.00000000000000     
           4  -1.00000000000000     
           5  -1.00000000000000     
           6  -1.00000000000000     
           7  -1.00000000000000     
           8  -1.00000000000000     
           9   500.000000000000     
          10  -1.00000000000000     
          11  -1.00000000000000     
 SURFACE-AREA DEPENDENT EXCHANGE IS ACTIVE
 READING EXCHANGE COEFFICIENTS
 NODE I  K_EXCHANGE(I)
   1    50.00    
   2    50.00    
   3    50.00    
   4    50.00    
   5    50.00    
   6    50.00    
   7    50.00    
   8    50.00    
   9    50.00    
  10    50.00    
  11    50.00    
 READING CONDUIT OUTPUT CONTROL FROM UNIT          54
 NNODES            11
 TSNO               1
 TSNO               2
 TSNO               3
 TSNO               4
 TSNO               5
 TSNO               6
 TSNO               7
 TSNO               8
 TSNO               9
 TSNO              10
 TSNO              11
 NOTSNO             1
 NTUBES            10
 TSTU               1
 TSTU               2
 TSTU               3
 TSTU               4
 TSTU               5
 TSTU               6
 TSTU               7
 TSTU               8
 TSTU               9
 TSTU              10
 NOTSTU             1
 PROCESSING AND CHECKING CONDUIT-NETWORK
 TESTING THE CONDUIT NETWORK:
  NO ERRORS DETECTED           `:) 
  NO WARNINGS             `:)
 BEGINNING CFPM1 SUBROUTINE DETERM_TUB
 BEGINNING CFPM1 SUBROUTINE GEOCALC THAT CALCULATES XYZ COORDINATES OF NODES
 TOP-ARRAY / BOT-ARRAY:
   700.000000000000             300.000000000000     
   300.000000000000            -100.000000000000     
  NODE   COLUMN    ROW    LAY      X         Y            Z      
      1      2      2      1     150.000     150.000     400.000    
      2      3      2      1     250.000     150.000     450.000    
      3      4      2      1     350.000     150.000     450.000    
      4      5      2      1     450.000     150.000     500.000    
      5      4      3      1     350.000     250.000     450.000    
      6      4      4      1     350.000     350.000     400.000    
      7      4      2      2     350.000     150.000     100.000    
      8      5      2      2     450.000     150.000     50.0000    
      9      6      2      2     550.000     150.000     100.000    
     10      4      3      2     350.000     250.000     100.000    
     11      4      4      2     350.000     350.000    -10.0000    
 
 BEGINNING CFPM1 LENGTH_CAL SUBROUTINE
 BEGINNING CFPM1 ROUGH_CAL SUBROUTINE
1
                            STRESS PERIOD NO.    1, LENGTH =   1.000000    
                            -----------------------------------------------

                              NUMBER OF TIME STEPS =     1

                               MULTIPLIER FOR DELT =     1.000

                            INITIAL TIME STEP SIZE =   1.000000    



                           RECHARGE
 READING ON UNIT   19 WITH FORMAT: (6E15.6)            
 
 CFP1RCH1RP SUBROUTINE READING FROM UNIT           53
  READING INPUT USED TO PARTICIAN RECHARGE
 0.0    0.0    0.0    1.0    0.0    0.0    0.0    0.0    0.0    0.0    0.0   
 COMPUTE NODE LENGTH
 NODE I     L_NODE (I)
   1       55.902
   2      105.902
   3      155.902
   4       55.902
   5      105.902
   6      465.902
   7      105.902
   8      111.803
   9       55.902
  10      124.330
  11      484.330
 
 SOLVING FOR HEAD 
  LAMINAR PRECALCULATION
MODFLOW ITER.#  NEWTON-RAPHSON ITER.#   MAXIMUM NODE HEAD CHANGE
         1                   1                  0.0000000000
  LAMINAR PRECALCULATION
TUBE   6 SWITCH LAM -> TURB: LAM_RE (   7923.    ) >= TCRITREY:   5000.     TURB_RE:   3142.    
TUBE   7 SWITCH LAM -> TURB: LAM_RE (   7858.    ) >= TCRITREY:   5000.     TURB_RE:   3128.    
TUBE   8 SWITCH LAM -> TURB: LAM_RE (   7953.    ) >= TCRITREY:   5000.     TURB_RE:   3149.    
TUBE   9 SWITCH LAM -> TURB: LAM_RE (   7793.    ) >= TCRITREY:   5000.     TURB_RE:   3113.    
TUBE  10 SWITCH LAM -> TURB: LAM_RE (   7589.    ) >= TCRITREY:   5000.     TURB_RE:   3068.    
MODFLOW ITER.#  NEWTON-RAPHSON ITER.#   MAXIMUM NODE HEAD CHANGE
         2                   1                  0.0000465183
         2                   2                  0.0000244789
         2                   3                  0.0000021159
         2                   4                  0.0000000116
MODFLOW ITER.#  NEWTON-RAPHSON ITER.#   MAXIMUM NODE HEAD CHANGE
         3                   1                  0.0000038584
         3                   2                  0.0000000372
         3                   3                  0.0000000000
MODFLOW ITER.#  NEWTON-RAPHSON ITER.#   MAXIMUM NODE HEAD CHANGE
         4                   1                  0.0000001700
         4                   2                  0.0000000001
         4                   3                  0.0000000000
MODFLOW ITER.#  NEWTON-RAPHSON ITER.#   MAXIMUM NODE HEAD CHANGE
         5                   1                  0.0000000074
         5                   2                  0.0000000000
         5                   3                  0.0000000000
MODFLOW ITER.#  NEWTON-RAPHSON ITER.#   MAXIMUM NODE HEAD CHANGE
         6                   1                  0.0000000003
         6                   2                  0.0000000000
         6                   3                  0.0000000000


     6 CALLS TO PCG ROUTINE FOR TIME STEP   1 IN STRESS PERIOD    1
    38 TOTAL ITERATIONS

 MAXIMUM HEAD CHANGE FOR EACH ITERATION (1 INDICATES THE FIRST INNER ITERATION):

    HEAD CHANGE    HEAD CHANGE    HEAD CHANGE    HEAD CHANGE    HEAD CHANGE 
   LAYER,ROW,COL  LAYER,ROW,COL  LAYER,ROW,COL  LAYER,ROW,COL  LAYER,ROW,COL
 ---------------------------------------------------------------------------
  1  0.1076E-01  0  0.3373E-02  0  0.3912E-03  0  0.1336E-03  0 -0.4293E-04
   (  1,  5,  1)  (  1,  1,  2)  (  1,  1,  4)  (  2,  5,  1)  (  2,  5,  1)
  0  0.1685E-04  0  0.2488E-05  0  0.4744E-06  0  0.1207E-06  0  0.1480E-07
   (  2,  2,  1)  (  2,  2,  1)  (  2,  1,  3)  (  2,  2,  1)  (  2,  1,  3)
  1  0.6847E-04  0  0.1974E-04  0  0.3913E-05  0  0.1882E-05  0  0.8085E-06
   (  1,  4,  4)  (  1,  5,  1)  (  1,  1,  5)  (  2,  5,  1)  (  1,  5,  1)
  0  0.1400E-06  0  0.4403E-07  0  0.8800E-08  0 -0.2360E-08  0  0.5309E-09
   (  1,  1,  3)  (  2,  3,  2)  (  2,  1,  3)  (  1,  3,  2)  (  1,  4,  2)
  1  0.2934E-05  0  0.8258E-06  0 -0.1678E-06  0  0.7969E-07  0  0.3572E-07
   (  1,  4,  4)  (  1,  5,  1)  (  2,  5,  1)  (  2,  5,  1)  (  1,  5,  1)
  0  0.5970E-08  0  0.2005E-08  0  0.3902E-09  1  0.1281E-06  0  0.3602E-07
   (  1,  1,  3)  (  2,  3,  2)  (  2,  1,  2)  (  1,  4,  4)  (  1,  5,  1)
  0 -0.7376E-08  0  0.3478E-08  0  0.1568E-08  0  0.2597E-09  1  0.5601E-08
   (  2,  5,  1)  (  2,  5,  1)  (  1,  5,  1)  (  1,  1,  3)  (  1,  4,  4)
  0  0.1545E-08  0 -0.3316E-09  1  0.3284E-09
   (  1,  5,  1)  (  2,  5,  1)  (  2,  5,  1)

 MAXIMUM RESIDUAL FOR EACH ITERATION (1 INDICATES THE FIRST INNER ITERATION):

    RESIDUAL       RESIDUAL       RESIDUAL       RESIDUAL       RESIDUAL    
   LAYER,ROW,COL  LAYER,ROW,COL  LAYER,ROW,COL  LAYER,ROW,COL  LAYER,ROW,COL
 ---------------------------------------------------------------------------
  1  -60.84      0  -17.64      0  -3.581      0   1.258      0  0.8380    
   (  1,  4,  4)  (  1,  4,  4)  (  1,  2,  2)  (  1,  3,  4)  (  1,  4,  4)
  0  0.8775E-01  0  0.2725E-01  0 -0.6762E-02  0 -0.1002E-02  0 -0.2783E-03
   (  1,  1,  5)  (  2,  4,  2)  (  1,  4,  4)  (  1,  2,  5)  (  2,  3,  3)
  1 -0.5028      0 -0.1874      0 -0.5776E-01  0 -0.2236E-01  0 -0.7275E-02
   (  1,  1,  5)  (  1,  1,  5)  (  1,  2,  3)  (  1,  2,  3)  (  1,  2,  4)
  0 -0.1662E-02  0 -0.4222E-03  0  0.1044E-03  0 -0.3294E-04  0 -0.5444E-05
   (  2,  3,  2)  (  1,  2,  2)  (  1,  3,  5)  (  1,  4,  2)  (  1,  3,  4)
  1 -0.2128E-01  0 -0.7953E-02  0 -0.2511E-02  0 -0.9543E-03  0 -0.3059E-03
   (  1,  1,  5)  (  1,  1,  5)  (  1,  2,  3)  (  1,  2,  3)  (  1,  2,  4)
  0 -0.7751E-04  0 -0.1944E-04  0  0.4490E-05  1 -0.9287E-03  0 -0.3474E-03
   (  2,  3,  2)  (  1,  2,  2)  (  1,  3,  5)  (  1,  1,  5)  (  1,  1,  5)
  0 -0.1100E-03  0 -0.4179E-04  0 -0.1332E-04  0 -0.3450E-05  1 -0.4041E-04
   (  1,  2,  3)  (  1,  2,  3)  (  1,  2,  4)  (  2,  3,  2)  (  1,  1,  5)
  0 -0.1522E-04  0 -0.4706E-05  1 -0.6819E-05
   (  1,  1,  5)  (  1,  2,  3)  (  1,  4,  4)


MODFLOW ITER.#  NEWTON-RAPHSON ITER.#   MAXIMUM NODE HEAD CHANGE
         6                   1                  0.0000000000
         6                   2                  0.0000000000
         6                   3                  0.0000000000

 OUTPUT CONTROL FOR STRESS PERIOD    1   TIME STEP   1
    SAVE HEAD FOR ALL LAYERS
 
 
 CFPM1 CRITERION OF CONVERGENCE:     0.1000000E-05
 CFPM1 MAXIMUM NUMBER OF ITERATIONS:   100
 
 
 CFPM1 RESULTS +++++++++++++++++++++++++++++++++++++++++++++++++++++++
 
 STRESS PERIOD/TIME STEP           1           1
 
NUMBER OF NEWTON RHAPSON ITERATIONS:     3
 
 ------- RESULTS OF FLOW CALCULATION -------
 
NODE# NODE HEAD[M] MATRIX HEAD [M] EXCHANGE [M^3/D]    CADSFLOW            PFPSFLOW         DIRECT RECHARGE        QWELL         FHLQ            CAUCHY         CAUCHY LQ               QLH              QFIX
    1  500.0001      500.0069        -60.10613           0.000000           0.000000           0.000000        0.000000         0.000000         0.000000         0.000000         0.000000         0.000000    
    2  500.0001      500.0050        -82.36016           0.000000           0.000000           0.000000        0.000000         0.000000         0.000000         0.000000         0.000000         0.000000    
    3  500.0001      500.0032        -76.08010           0.000000           0.000000           0.000000        0.000000         0.000000         0.000000         0.000000         0.000000         0.000000    
    4  500.0001      500.0021         0.000000           0.000000           0.000000           30.00000        0.000000         0.000000         0.000000         0.000000         0.000000         0.000000    
    5  500.0001      500.0032        -52.07823           0.000000           0.000000           0.000000        0.000000         0.000000         0.000000         0.000000         0.000000         0.000000    
    6  500.0001      500.0023        -158.3640           0.000000           0.000000           0.000000        0.000000         0.000000         0.000000         0.000000         0.000000         0.000000    
    7  500.0000      500.0003        -3.892750           0.000000           0.000000           0.000000        0.000000         0.000000         0.000000         0.000000         0.000000         0.000000    
    8  500.0000      500.0001        -1.815429           0.000000           0.000000           0.000000        0.000000         0.000000         0.000000         0.000000         0.000000         0.000000    
    9  500.0    FIX  500.0000           0.0000           0.000000           0.000000           0.000000        0.000000         0.000000         0.000000         0.000000         0.000000        -479.9888    
   10  500.0000      500.0002        -3.820864           0.000000           0.000000           0.000000        0.000000         0.000000         0.000000         0.000000         0.000000         0.000000    
   11  500.0001      500.0002        -11.47114           0.000000           0.000000           0.000000        0.000000         0.000000         0.000000         0.000000         0.000000         0.000000    
 
TUBE  B  E  FLOW          Q [M^3/D]       DIAM.[M]        LEN.[M]        RE         RESIDENCE TIME [D]
   1   1   2   LAMI.        60.10613        1.00000      111.80340      991.76953        1.46092
   2   2   3   LAMI.       142.46629        1.00000      100.00000     2350.73747        0.55129
   3   3   4   LAMI.       -30.00000        1.00000      111.80340      495.00926        2.92701
   4   3   5   LAMI.       248.54638        1.00000      100.00000     4101.09162        0.31600
   5   5   6   LAMI.       300.62462        1.00000      111.80340     4960.39845        0.29209
   6   7   8   TURB.       478.17339        1.00000      111.80340     7890.00777        0.18364
   7   7  10   TURB.      -474.28064        1.00000      100.00000     7825.77621        0.16560
   8   8   9   TURB.       479.98882        1.00000      111.80340     7919.96292        0.18294
   9  10  11   TURB.      -470.45978        1.00000      148.66069     7762.73080        0.24818
  10   6  11   TURB.       458.98864        1.00000      410.00000     7573.45344        0.70157
 

    BUDGET OF THE PIPE SYSTEM OF TIMESTEP    1 IN STRESS PERIOD    1
------------------------------------------------------------------------

  TOTAL SIMULATION TIME   1.00000000000000      S
 
       CUMULATIVE VALUES (L**3)           RATES THIS TIME STEP (L**3/T)

            IN:                               IN:
     CONSTANT HEAD =   0.0000000          CONSTANT HEAD =   0.0000000    
   MATRIX EXCHANGE =   449.98882        MATRIX EXCHANGE =   449.98882    
     PIPE RECHARGE =   30.000000          PIPE RECHARGE =   30.000000    
       PFP STORAGE =   0.0000000            PFP STORAGE =   0.0000000    

     CUMULATIVE IN =   479.98882               TOTAL IN =   479.98882    

           OUT:                               OUT:
     CONSTANT HEAD =   479.98882          CONSTANT HEAD =   479.98882    
   MATRIX EXCHANGE =   0.0000000        MATRIX EXCHANGE =   0.0000000    
     PIPE RECHARGE =   0.0000000          PIPE RECHARGE =   0.0000000    
       PFP STORAGE =   0.0000000            PFP STORAGE =   0.0000000    

    CUMULATIVE OUT =   479.98882              TOTAL OUT =   479.98882    

          IN - OUT =  0.23730246E-06           IN - OUT =  0.23730246E-06
     PERCENT ERROR =  0.00                PERCENT ERROR =  0.00


 
 ------------------------NODE WATER BUDGET-----------------------
  STRESS PERIOD           1  TIME STEP           1
 TOTAL SIMULATION TIME   1.00000000000000     
 
 FLOW TO THE NODE IN M^3/D
 
 NODE   FIXED HEAD     RECHARGE        QWELL  MATRIX EXCH      STORAGE      TUBE_IN     TUBE_OUT         CADS     FHLQ(LQ)       CAUCHY   CAUCHY(LQ)          QLH     IN - OUT
   1     0.0000       0.0000       0.0000       60.106       0.0000       0.0000      -60.106       0.0000       0.0000       0.0000       0.0000       0.0000      0.29754E-05
   2     0.0000       0.0000       0.0000       82.360       0.0000       60.106      -142.47       0.0000       0.0000       0.0000       0.0000       0.0000     -0.33354E-05
   3     0.0000       0.0000       0.0000       76.080       0.0000       172.47      -248.55       0.0000       0.0000       0.0000       0.0000       0.0000      0.50568E-05
   4     0.0000       30.000       0.0000       0.0000       0.0000       0.0000      -30.000       0.0000       0.0000       0.0000       0.0000       0.0000     -0.31518E-05
   5     0.0000       0.0000       0.0000       52.078       0.0000       248.55      -300.62       0.0000       0.0000       0.0000       0.0000       0.0000      0.19780E-05
   6     0.0000       0.0000       0.0000       158.36       0.0000       300.62      -458.99       0.0000       0.0000       0.0000       0.0000       0.0000     -0.34540E-05
   7     0.0000       0.0000       0.0000       3.8927       0.0000       474.28      -478.17       0.0000       0.0000       0.0000       0.0000       0.0000      0.19167E-06
   8     0.0000       0.0000       0.0000       1.8154       0.0000       478.17      -479.99       0.0000       0.0000       0.0000       0.0000       0.0000     -0.25287E-07
   9    -479.99       0.0000       0.0000       0.0000       0.0000       479.99       0.0000       0.0000       0.0000       0.0000       0.0000       0.0000       0.0000    
  10     0.0000       0.0000       0.0000       3.8209       0.0000       470.46      -474.28       0.0000       0.0000       0.0000       0.0000       0.0000      0.94318E-06
  11     0.0000       0.0000       0.0000       11.471       0.0000       458.99      -470.46       0.0000       0.0000       0.0000       0.0000       0.0000     -0.94134E-06
 TIME SERIES OUTPUT IN FILE NODE00000001.OUT
 TIME SERIES OUTPUT IN FILE NODE00000002.OUT
 TIME SERIES OUTPUT IN FILE NODE00000003.OUT
 TIME SERIES OUTPUT IN FILE NODE00000004.OUT
 TIME SERIES OUTPUT IN FILE NODE00000005.OUT
 TIME SERIES OUTPUT IN FILE NODE00000006.OUT
 TIME SERIES OUTPUT IN FILE NODE00000007.OUT
 TIME SERIES OUTPUT IN FILE NODE00000008.OUT
 TIME SERIES OUTPUT IN FILE NODE00000009.OUT
 TIME SERIES OUTPUT IN FILE NODE00000010.OUT
 TIME SERIES OUTPUT IN FILE NODE00000011.OUT
 TIME SERIES OUTPUT IN FILE TUBE00000001.OUT
 TIME SERIES OUTPUT IN FILE TUBE00000002.OUT
 TIME SERIES OUTPUT IN FILE TUBE00000003.OUT
 TIME SERIES OUTPUT IN FILE TUBE00000004.OUT
 TIME SERIES OUTPUT IN FILE TUBE00000005.OUT
 TIME SERIES OUTPUT IN FILE TUBE00000006.OUT
 TIME SERIES OUTPUT IN FILE TUBE00000007.OUT
 TIME SERIES OUTPUT IN FILE TUBE00000008.OUT
 TIME SERIES OUTPUT IN FILE TUBE00000009.OUT
 TIME SERIES OUTPUT IN FILE TUBE00000010.OUT

 HEAD WILL BE SAVED ON UNIT   51 AT END OF TIME STEP   1, STRESS PERIOD    1
1
  VOLUMETRIC BUDGET FOR ENTIRE MODEL AT END OF TIME STEP  1 IN STRESS PERIOD   1
  ------------------------------------------------------------------------------

     CUMULATIVE VOLUMES      L**3       RATES FOR THIS TIME STEP      L**3/T
     ------------------                 ------------------------

           IN:                                      IN:
           ---                                      ---
             STORAGE =           0.0000               STORAGE =           0.0000
       CONSTANT HEAD =           0.0000         CONSTANT HEAD =           0.0000
            RECHARGE =         720.0000              RECHARGE =         720.0000
               PIPES =           0.0000                 PIPES =           0.0000

            TOTAL IN =         720.0000              TOTAL IN =         720.0000

          OUT:                                     OUT:
          ----                                     ----
             STORAGE =           0.0000               STORAGE =           0.0000
       CONSTANT HEAD =         270.0112         CONSTANT HEAD =         270.0112
            RECHARGE =           0.0000              RECHARGE =           0.0000
               PIPES =         449.9888                 PIPES =         449.9888

           TOTAL OUT =         720.0000             TOTAL OUT =         720.0000

            IN - OUT =       2.4965E-05              IN - OUT =       2.4965E-05

 PERCENT DISCREPANCY =           0.00     PERCENT DISCREPANCY =           0.00






          TIME SUMMARY AT END OF TIME STEP   1 IN STRESS PERIOD    1
                    SECONDS     MINUTES      HOURS       DAYS        YEARS
                    -----------------------------------------------------------
   TIME STEP LENGTH  86400.      1440.0      24.000      1.0000     2.73785E-03
 STRESS PERIOD TIME  86400.      1440.0      24.000      1.0000     2.73785E-03
         TOTAL TIME  86400.      1440.0      24.000      1.0000     2.73785E-03
1

 RUN END DATE AND TIME (YYYY/MM/DD HH:MM:SS): 2023/02/16 18:18:40
 ELAPSED RUN TIME:  0.016 SECONDS

