                                  MODFLOW-2005     
      U.S. GEOLOGICAL SURVEY MODULAR FINITE-DIFFERENCE GROUND-WATER FLOW MODEL
              VERSION 1.9.25 06/04/2013 CFPv2 HTM/STM/UMT-LNK/CADS

           THIS IS A RESEARCH VERSION OF CFP MODE 1 FOR TEST PURPOSES
                  WITHOUT ANY WARRANTY REGARDING CORRECTNESS

           CONTACT: THOMAS.REIMANN@TU-DRESDEN.DE / BSHOEMAK@USGS.GOV


 LIST FILE: mf_stoch.list
                         UNIT    2

 OPENING mf_stoch.dis
 FILE TYPE:DIS   UNIT   11   STATUS:OLD    
 FORMAT:FORMATTED              ACCESS:SEQUENTIAL          

 OPENING mf_stoch.bas
 FILE TYPE:BAS6   UNIT   13   STATUS:OLD    
 FORMAT:FORMATTED              ACCESS:SEQUENTIAL          

 OPENING mf_stoch.lpf
 FILE TYPE:LPF   UNIT   15   STATUS:OLD    
 FORMAT:FORMATTED              ACCESS:SEQUENTIAL          

 OPENING mf_stoch.rch
 FILE TYPE:RCH   UNIT   19   STATUS:OLD    
 FORMAT:FORMATTED              ACCESS:SEQUENTIAL          

 OPENING mf_stoch.chd
 FILE TYPE:CHD   UNIT   24   STATUS:OLD    
 FORMAT:FORMATTED              ACCESS:SEQUENTIAL          

 OPENING mf_stoch.hob
 FILE TYPE:HOB   UNIT   39   STATUS:OLD    
 FORMAT:FORMATTED              ACCESS:SEQUENTIAL          

 OPENING mf_stoch.pcg
 FILE TYPE:PCG   UNIT   27   STATUS:OLD    
 FORMAT:FORMATTED              ACCESS:SEQUENTIAL          

 OPENING mf_stoch.oc
 FILE TYPE:OC   UNIT   14   STATUS:OLD    
 FORMAT:FORMATTED              ACCESS:SEQUENTIAL          

 OPENING mf_stoch.cbc
 FILE TYPE:DATA(BINARY)   UNIT   50   STATUS:REPLACE
 FORMAT:BINARY                 ACCESS:SEQUENTIAL          

 OPENING mf_stoch.hds
 FILE TYPE:DATA(BINARY)   UNIT   51   STATUS:REPLACE
 FORMAT:BINARY                 ACCESS:SEQUENTIAL          

 OPENING mf_stoch.coc
 FILE TYPE:COC   UNIT   54   STATUS:OLD    
 FORMAT:FORMATTED              ACCESS:SEQUENTIAL          

 OPENING mf_stoch.cfp
 FILE TYPE:CFP   UNIT   52   STATUS:OLD    
 FORMAT:FORMATTED              ACCESS:SEQUENTIAL          

 OPENING mf_stoch.crch
 FILE TYPE:CRCH   UNIT   53   STATUS:OLD    
 FORMAT:FORMATTED              ACCESS:SEQUENTIAL          

 BAS -- BASIC PACKAGE, VERSION 7, 5/2/2005 INPUT READ FROM UNIT   13

 DISCRETIZATION INPUT DATA READ FROM UNIT   11
 # DIS package for MODFLOW-2005 generated by Flopy 3.5.0
    1 LAYERS        40 ROWS        48 COLUMNS
   48 STRESS PERIOD(S) IN SIMULATION
 MODEL TIME UNIT IS SECONDS
 MODEL LENGTH UNIT IS METERS
  Confining bed flag for each layer:
   0



                               DELR
 READING ON UNIT   11 WITH FORMAT: (48E15.6)           



                               DELC
 READING ON UNIT   11 WITH FORMAT: (40E15.6)           



           TOP ELEVATION OF LAYER 1
 READING ON UNIT   11 WITH FORMAT: (48E15.6)           



             MODEL LAYER BOTTOM EL. FOR LAYER   1
 READING ON UNIT   11 WITH FORMAT: (48E15.6)           


 STRESS PERIOD     LENGTH       TIME STEPS     MULTIPLIER FOR DELT    SS FLAG
 ----------------------------------------------------------------------------
        1         3600.000          1                    1.000         SS
        2         3600.000          1                    1.000         TR
        3         3600.000          1                    1.000         TR
        4         3600.000          1                    1.000         TR
        5         3600.000          1                    1.000         TR
        6         3600.000          1                    1.000         TR
        7         3600.000          1                    1.000         TR
        8         3600.000          1                    1.000         TR
        9         3600.000          1                    1.000         TR
       10         3600.000          1                    1.000         TR
       11         3600.000          1                    1.000         TR
       12         3600.000          1                    1.000         TR
       13         3600.000          1                    1.000         TR
       14         3600.000          1                    1.000         TR
       15         3600.000          1                    1.000         TR
       16         3600.000          1                    1.000         TR
       17         3600.000          1                    1.000         TR
       18         3600.000          1                    1.000         TR
       19         3600.000          1                    1.000         TR
       20         3600.000          1                    1.000         TR
       21         3600.000          1                    1.000         TR
       22         3600.000          1                    1.000         TR
       23         3600.000          1                    1.000         TR
       24         3600.000          1                    1.000         TR
       25         3600.000          1                    1.000         TR
       26         3600.000          1                    1.000         TR
       27         3600.000          1                    1.000         TR
       28         3600.000          1                    1.000         TR
       29         3600.000          1                    1.000         TR
       30         3600.000          1                    1.000         TR
       31         3600.000          1                    1.000         TR
       32         3600.000          1                    1.000         TR
       33         3600.000          1                    1.000         TR
       34         3600.000          1                    1.000         TR
       35         3600.000          1                    1.000         TR
       36         3600.000          1                    1.000         TR
       37         3600.000          1                    1.000         TR
       38         3600.000          1                    1.000         TR
       39         3600.000          1                    1.000         TR
       40         3600.000          1                    1.000         TR
       41         3600.000          1                    1.000         TR
       42         3600.000          1                    1.000         TR
       43         3600.000          1                    1.000         TR
       44         3600.000          1                    1.000         TR
       45         3600.000          1                    1.000         TR
       46         3600.000          1                    1.000         TR
       47         3600.000          1                    1.000         TR
       48         3600.000          1                    1.000         TR

 COMBINED STEADY-STATE AND TRANSIENT SIMULATION



 
 # BAS6 package for MODFLOW-2005 generated by Flopy 3.5.0                        
 THE FREE FORMAT OPTION HAS BEEN SELECTED



                     BOUNDARY ARRAY FOR LAYER   1
 READING ON UNIT   13 WITH FORMAT: (48I10)             

 AQUIFER HEAD WILL BE SET TO  -999.99     AT ALL NO-FLOW NODES (IBOUND=0).



                       INITIAL HEAD FOR LAYER   1
 READING ON UNIT   13 WITH FORMAT: (48E15.6)           
 # OC package for MODFLOW-2005 generated by Flopy 3.5.0

 OUTPUT CONTROL IS SPECIFIED ONLY AT TIME STEPS FOR WHICH OUTPUT IS DESIRED
 COMPACT CELL-BY-CELL BUDGET FILES WILL BE WRITTEN
 AUXILIARY DATA WILL BE SAVED IN CELL-BY-CELL BUDGET FILES
 HEAD PRINT FORMAT CODE IS   0    DRAWDOWN PRINT FORMAT CODE IS   0
 HEADS WILL BE SAVED ON UNIT   51    DRAWDOWNS WILL BE SAVED ON UNIT    0

 LPF -- LAYER-PROPERTY FLOW PACKAGE, VERSION 7, 5/2/2005
         INPUT READ FROM UNIT   15
 # LPF package for MODFLOW-2005 generated by Flopy 3.5.0
 CELL-BY-CELL FLOWS WILL BE SAVED ON UNIT   50
 HEAD AT CELLS THAT CONVERT TO DRY=   999.00    
 No named parameters

   LAYER FLAGS:
 LAYER       LAYTYP        LAYAVG         CHANI        LAYVKA        LAYWET
 ---------------------------------------------------------------------------
    1             1             0     1.000E+00             0             0

   INTERPRETATION OF LAYER FLAGS:
                        INTERBLOCK     HORIZONTAL    DATA IN
         LAYER TYPE   TRANSMISSIVITY   ANISOTROPY   ARRAY VKA   WETTABILITY
 LAYER      (LAYTYP)      (LAYAVG)       (CHANI)      (LAYVKA)      (LAYWET)
 ---------------------------------------------------------------------------
    1   CONVERTIBLE      HARMONIC     1.000E+00    VERTICAL K  NON-WETTABLE

 WETTING CAPABILITY IS NOT ACTIVE IN ANY LAYER



              HYD. COND. ALONG ROWS FOR LAYER   1
 READING ON UNIT   15 WITH FORMAT: (48E15.6)           



                VERTICAL HYD. COND. FOR LAYER   1
 READING ON UNIT   15 WITH FORMAT: (48E15.6)           



                   SPECIFIC STORAGE FOR LAYER   1
 READING ON UNIT   15 WITH FORMAT: (48E15.6)           



                     SPECIFIC YIELD FOR LAYER   1
 READING ON UNIT   15 WITH FORMAT: (48E15.6)           

 RCH -- RECHARGE PACKAGE, VERSION 7, 5/2/2005 INPUT READ FROM UNIT   19
 # RCH package for MODFLOW-2005 generated by Flopy 3.5.0
 No named parameters
 OPTION 1 -- RECHARGE TO TOP LAYER
 CELL-BY-CELL FLOWS WILL BE SAVED ON UNIT   50


     0 Recharge parameters

 CHD -- TIME-VARIANT SPECIFIED-HEAD OPTION, VERSION 7, 5/2/2005
 INPUT READ FROM UNIT   24
 # CHD package for MODFLOW-2005 generated by Flopy 3.5.0
 No named parameters
 MAXIMUM OF     40 TIME-VARIANT SPECIFIED-HEAD CELLS AT ONE TIME


     0 TIME-VARIANT SPECIFIED-HEAD PARAMETERS

 PCG -- CONJUGATE-GRADIENT SOLUTION PACKAGE, VERSION 7, 5/2/2005
 # PCG package for MODFLOW-2005 generated by Flopy 3.5.0
 MAXIMUM OF   2000 CALLS OF SOLUTION ROUTINE
 MAXIMUM OF   2000 INTERNAL ITERATIONS PER CALL TO SOLUTION ROUTINE
 MATRIX PRECONDITIONING TYPE :    1
 IHCOFADD option -- When an active cell is surrounded by dry cells, convert
 the cell to dry only if storage and head-dependent boundary flow are 0.



                                    SOLUTION BY THE CONJUGATE-GRADIENT METHOD
                                   -------------------------------------------
                    MAXIMUM NUMBER OF CALLS TO PCG ROUTINE =     2000
                        MAXIMUM ITERATIONS PER CALL TO PCG =     2000
                               MATRIX PRECONDITIONING TYPE =        1
        RELAXATION FACTOR (ONLY USED WITH PRECOND. TYPE 1) =    0.99000E+00
 PARAMETER OF POLYNOMIAL PRECOND. = 2 (2) OR IS CALCULATED :        2
                         HEAD CHANGE CRITERION FOR CLOSURE =    0.20000E-03
                     RESIDUAL CHANGE CRITERION FOR CLOSURE =    0.20000E-03
            PCG HEAD AND RESIDUAL CHANGE PRINTOUT INTERVAL =        5
     PRINTING FROM SOLVER IS LIMITED(1) OR SUPPRESSED (>1) =        0
                            STEADY-STATE DAMPING PARAMETER =    0.99000E+00
                               TRANSIENT DAMPING PARAMETER =    0.99000E+00
 
 CFP1AR READING FROM UNIT          52
 ---------------------------------
 CFP MODE 1 IS ACTIVE (PIPES) 
 ---------------------------------
 KEYWORD CADS ACTIVE
    NUMBER OF NODES IS    97
    NUMBER OF TUBES IS   100
    NUMBER OF LAYERS IS    1
 GRAVITATIONAL CONSTANT (G) COMPUTED 
 WATER TEMPERATURE, IN DEGREES CELCIUS, IS    10.0000000000000     
  KINEMATIC VISCOSITY [L^2/T]=  1.307568525664806E-006
 
  NBR-ARRAY: 
         1     31     5     1      2     3     0     0     0     0      1     2     0     0     0     0
         2     32     5     1      4     1     0     0     0     0      3     1     0     0     0     0
         3     31     6     1      1     4     6     0     0     0      2     4     5     0     0     0
         4     32     6     1      2     3     0     0     0     0      3     4     0     0     0     0
         5     30     7     1      6     8     0     0     0     0      6     7     0     0     0     0
         6     31     7     1      3     5     0     0     0     0      5     6     0     0     0     0
         7     29     8     1      8     9     0     0     0     0      8     9     0     0     0     0
         8     30     8     1      5     7     0     0     0     0      7     8     0     0     0     0
         9     29     9     1      7    11     0     0     0     0      9    10     0     0     0     0
        10     28    10     1     11    12     0     0     0     0     11    12     0     0     0     0
        11     29    10     1      9    10     0     0     0     0     10    11     0     0     0     0
        12     28    11     1     10    14     0     0     0     0     12    13     0     0     0     0
        13     27    12     1     14    15     0     0     0     0     14    15     0     0     0     0
        14     28    12     1     12    13     0     0     0     0     13    14     0     0     0     0
        15     27    13     1     13    17     0     0     0     0     15    16     0     0     0     0
        16     26    14     1     17    20     0     0     0     0     17    18     0     0     0     0
        17     27    14     1     15    16     0     0     0     0     16    17     0     0     0     0
        18     34    14     1     22     0     0     0     0     0     19     0     0     0     0     0
        19     25    15     1     20    23     0     0     0     0     20    21     0     0     0     0
        20     26    15     1     16    19     0     0     0     0     18    20     0     0     0     0
        21     33    15     1     22     0     0     0     0     0     22     0     0     0     0     0
        22     34    15     1     18    24    21     0     0     0     19    23    22     0     0     0
        23     25    16     1     19    25     0     0     0     0     21    24     0     0     0     0
        24     34    16     1     22    26     0     0     0     0     23    25     0     0     0     0
        25     25    17     1     23    28     0     0     0     0     24    26     0     0     0     0
        26     34    17     1     24    30     0     0     0     0     25    27     0     0     0     0
        27     24    18     1     28    32     0     0     0     0     28    29     0     0     0     0
        28     25    18     1     25    27     0     0     0     0     26    28     0     0     0     0
        29     33    18     1     30    33     0     0     0     0     30    31     0     0     0     0
        30     34    18     1     26    29     0     0     0     0     27    30     0     0     0     0
        31     23    19     1     32    34     0     0     0     0     32    33     0     0     0     0
        32     24    19     1     27    31     0     0     0     0     29    32     0     0     0     0
        33     33    19     1     29    35     0     0     0     0     31    34     0     0     0     0
        34     23    20     1     31    37     0     0     0     0     33    35     0     0     0     0
        35     33    20     1     33    40     0     0     0     0     34    36     0     0     0     0
        36     22    21     1     37    42     0     0     0     0     37    38     0     0     0     0
        37     23    21     1     34    36     0     0     0     0     35    37     0     0     0     0
        38     31    21     1     39    48     0     0     0     0     39    40     0     0     0     0
        39     32    21     1     40    38     0     0     0     0     41    39     0     0     0     0
        40     33    21     1     35    39     0     0     0     0     36    41     0     0     0     0
        41     21    22     1     42    50     0     0     0     0     42    43     0     0     0     0
        42     22    22     1     36    41     0     0     0     0     38    42     0     0     0     0
        43     26    22     1     44    52     0     0     0     0     44    45     0     0     0     0
        44     27    22     1     45    43     0     0     0     0     46    44     0     0     0     0
        45     28    22     1     46    44     0     0     0     0     47    46     0     0     0     0
        46     29    22     1     47    45     0     0     0     0     48    47     0     0     0     0
        47     30    22     1     48    46     0     0     0     0     49    48     0     0     0     0
        48     31    22     1     38    47     0     0     0     0     40    49     0     0     0     0
        49     20    23     1     50    55     0     0     0     0     50    51     0     0     0     0
        50     21    23     1     41    56    49     0     0     0     43    52    50     0     0     0
        51     25    23     1     52    60     0     0     0     0     53    54     0     0     0     0
        52     26    23     1     43    51     0     0     0     0     45    53     0     0     0     0
        53     18    24     1     54    69     0     0     0     0     55    56     0     0     0     0
        54     19    24     1     55    70    53     0     0     0     57    58    55     0     0     0
        55     20    24     1     49    56    71    54     0     0     51    59    60    57     0     0
        56     21    24     1     50    57    55     0     0     0     52    61    59     0     0     0
        57     22    24     1     58    56     0     0     0     0     62    61     0     0     0     0
        58     23    24     1     59    57     0     0     0     0     63    62     0     0     0     0
        59     24    24     1     60    58     0     0     0     0     64    63     0     0     0     0
        60     25    24     1     51    59     0     0     0     0     54    64     0     0     0     0
        61     10    25     1     62    72     0     0     0     0     65    66     0     0     0     0
        62     11    25     1     63    61     0     0     0     0     67    65     0     0     0     0
        63     12    25     1     64    62     0     0     0     0     68    67     0     0     0     0
        64     13    25     1     65    63     0     0     0     0     69    68     0     0     0     0
        65     14    25     1     66    64     0     0     0     0     70    69     0     0     0     0
        66     15    25     1     67    65     0     0     0     0     71    70     0     0     0     0
        67     16    25     1     68    66     0     0     0     0     72    71     0     0     0     0
        68     17    25     1     69    67     0     0     0     0     73    72     0     0     0     0
        69     18    25     1     53    70    68     0     0     0     56    74    73     0     0     0
        70     19    25     1     54    71    69     0     0     0     58    75    74     0     0     0
        71     20    25     1     55    73    70     0     0     0     60    76    75     0     0     0
        72     10    26     1     61     0     0     0     0     0     66     0     0     0     0     0
        73     20    26     1     71    74     0     0     0     0     76    77     0     0     0     0
        74     21    26     1     75    73     0     0     0     0     78    77     0     0     0     0
        75     22    26     1     76    74     0     0     0     0     79    78     0     0     0     0
        76     22    27     1     75    77     0     0     0     0     79    80     0     0     0     0
        77     23    27     1     78    76     0     0     0     0     81    80     0     0     0     0
        78     23    28     1     77    79     0     0     0     0     81    82     0     0     0     0
        79     24    28     1     80    78     0     0     0     0     83    82     0     0     0     0
        80     25    28     1     81    79     0     0     0     0     84    83     0     0     0     0
        81     25    29     1     80    82     0     0     0     0     84    85     0     0     0     0
        82     26    29     1     83    81     0     0     0     0     86    85     0     0     0     0
        83     26    30     1     82    84     0     0     0     0     86    87     0     0     0     0
        84     26    31     1     83    85     0     0     0     0     87    88     0     0     0     0
        85     27    31     1     86    84     0     0     0     0     89    88     0     0     0     0
        86     28    31     1     87    85     0     0     0     0     90    89     0     0     0     0
        87     28    32     1     86    88     0     0     0     0     90    91     0     0     0     0
        88     29    32     1     89    87     0     0     0     0     92    91     0     0     0     0
        89     29    33     1     88    90     0     0     0     0     92    93     0     0     0     0
        90     30    33     1     91    89     0     0     0     0     94    93     0     0     0     0
        91     30    34     1     90    92     0     0     0     0     94    95     0     0     0     0
        92     31    34     1     93    91     0     0     0     0     96    95     0     0     0     0
        93     32    34     1     94    92     0     0     0     0     97    96     0     0     0     0
        94     32    35     1     93    95     0     0     0     0     97    98     0     0     0     0
        95     33    35     1     96    97    94     0     0     0     99   100    98     0     0     0
        96     34    35     1     95     0     0     0     0     0     99     0     0     0     0     0
        97     33    36     1     95     0     0     0     0     0    100     0     0     0     0     0
 NBR ARRAY READ
  NODE ELEVATIONS:
           1   5.00000000000000     
           2   5.00000000000000     
           3   5.00000000000000     
           4   5.00000000000000     
           5   5.00000000000000     
           6   5.00000000000000     
           7   5.00000000000000     
           8   5.00000000000000     
           9   5.00000000000000     
          10   5.00000000000000     
          11   5.00000000000000     
          12   5.00000000000000     
          13   5.00000000000000     
          14   5.00000000000000     
          15   5.00000000000000     
          16   5.00000000000000     
          17   5.00000000000000     
          18   5.00000000000000     
          19   5.00000000000000     
          20   5.00000000000000     
          21   5.00000000000000     
          22   5.00000000000000     
          23   5.00000000000000     
          24   5.00000000000000     
          25   5.00000000000000     
          26   5.00000000000000     
          27   5.00000000000000     
          28   5.00000000000000     
          29   5.00000000000000     
          30   5.00000000000000     
          31   5.00000000000000     
          32   5.00000000000000     
          33   5.00000000000000     
          34   5.00000000000000     
          35   5.00000000000000     
          36   5.00000000000000     
          37   5.00000000000000     
          38   5.00000000000000     
          39   5.00000000000000     
          40   5.00000000000000     
          41   5.00000000000000     
          42   5.00000000000000     
          43   5.00000000000000     
          44   5.00000000000000     
          45   5.00000000000000     
          46   5.00000000000000     
          47   5.00000000000000     
          48   5.00000000000000     
          49   5.00000000000000     
          50   5.00000000000000     
          51   5.00000000000000     
          52   5.00000000000000     
          53   5.00000000000000     
          54   5.00000000000000     
          55   5.00000000000000     
          56   5.00000000000000     
          57   5.00000000000000     
          58   5.00000000000000     
          59   5.00000000000000     
          60   5.00000000000000     
          61   5.00000000000000     
          62   5.00000000000000     
          63   5.00000000000000     
          64   5.00000000000000     
          65   5.00000000000000     
          66   5.00000000000000     
          67   5.00000000000000     
          68   5.00000000000000     
          69   5.00000000000000     
          70   5.00000000000000     
          71   5.00000000000000     
          72   5.00000000000000     
          73   5.00000000000000     
          74   5.00000000000000     
          75   5.00000000000000     
          76   5.00000000000000     
          77   5.00000000000000     
          78   5.00000000000000     
          79   5.00000000000000     
          80   5.00000000000000     
          81   5.00000000000000     
          82   5.00000000000000     
          83   5.00000000000000     
          84   5.00000000000000     
          85   5.00000000000000     
          86   5.00000000000000     
          87   5.00000000000000     
          88   5.00000000000000     
          89   5.00000000000000     
          90   5.00000000000000     
          91   5.00000000000000     
          92   5.00000000000000     
          93   5.00000000000000     
          94   5.00000000000000     
          95   5.00000000000000     
          96   5.00000000000000     
          97   5.00000000000000     
 FINISHED READING NEWTON RAPHSON ITERATION CONTROLS
 READING NODE AND TUBE DATA
 NO_P  DIAMETER  TORTUOSITY  RHEIGHT  LCRITREY_P TCRITREY_P
   1.     1.650        1.35   0.1650      500.00    5000.00
   2.     1.650        1.35   0.1650      500.00    5000.00
   3.     1.650        1.35   0.1650      500.00    5000.00
   4.     1.650        1.35   0.1650      500.00    5000.00
   5.     1.650        1.35   0.1650      500.00    5000.00
   6.     1.650        1.35   0.1650      500.00    5000.00
   7.     1.650        1.35   0.1650      500.00    5000.00
   8.     1.650        1.35   0.1650      500.00    5000.00
   9.     1.650        1.35   0.1650      500.00    5000.00
  10.     1.650        1.35   0.1650      500.00    5000.00
  11.     1.650        1.35   0.1650      500.00    5000.00
  12.     1.650        1.35   0.1650      500.00    5000.00
  13.     1.650        1.35   0.1650      500.00    5000.00
  14.     1.650        1.35   0.1650      500.00    5000.00
  15.     1.650        1.35   0.1650      500.00    5000.00
  16.     1.650        1.35   0.1650      500.00    5000.00
  17.     1.650        1.35   0.1650      500.00    5000.00
  18.     1.650        1.35   0.1650      500.00    5000.00
  19.     1.650        1.35   0.1650      500.00    5000.00
  20.     1.650        1.35   0.1650      500.00    5000.00
  21.     1.650        1.35   0.1650      500.00    5000.00
  22.     1.650        1.35   0.1650      500.00    5000.00
  23.     1.650        1.35   0.1650      500.00    5000.00
  24.     1.650        1.35   0.1650      500.00    5000.00
  25.     1.650        1.35   0.1650      500.00    5000.00
  26.     1.650        1.35   0.1650      500.00    5000.00
  27.     1.650        1.35   0.1650      500.00    5000.00
  28.     1.650        1.35   0.1650      500.00    5000.00
  29.     1.650        1.35   0.1650      500.00    5000.00
  30.     1.650        1.35   0.1650      500.00    5000.00
  31.     1.650        1.35   0.1650      500.00    5000.00
  32.     1.650        1.35   0.1650      500.00    5000.00
  33.     1.650        1.35   0.1650      500.00    5000.00
  34.     1.650        1.35   0.1650      500.00    5000.00
  35.     1.650        1.35   0.1650      500.00    5000.00
  36.     1.650        1.35   0.1650      500.00    5000.00
  37.     1.650        1.35   0.1650      500.00    5000.00
  38.     1.650        1.35   0.1650      500.00    5000.00
  39.     1.650        1.35   0.1650      500.00    5000.00
  40.     1.650        1.35   0.1650      500.00    5000.00
  41.     1.650        1.35   0.1650      500.00    5000.00
  42.     1.650        1.35   0.1650      500.00    5000.00
  43.     1.650        1.35   0.1650      500.00    5000.00
  44.     1.650        1.35   0.1650      500.00    5000.00
  45.     1.650        1.35   0.1650      500.00    5000.00
  46.     1.650        1.35   0.1650      500.00    5000.00
  47.     1.650        1.35   0.1650      500.00    5000.00
  48.     1.650        1.35   0.1650      500.00    5000.00
  49.     1.650        1.35   0.1650      500.00    5000.00
  50.     1.650        1.35   0.1650      500.00    5000.00
  51.     1.650        1.35   0.1650      500.00    5000.00
  52.     1.650        1.35   0.1650      500.00    5000.00
  53.     1.650        1.35   0.1650      500.00    5000.00
  54.     1.650        1.35   0.1650      500.00    5000.00
  55.     1.650        1.35   0.1650      500.00    5000.00
  56.     1.650        1.35   0.1650      500.00    5000.00
  57.     1.650        1.35   0.1650      500.00    5000.00
  58.     1.650        1.35   0.1650      500.00    5000.00
  59.     1.650        1.35   0.1650      500.00    5000.00
  60.     1.650        1.35   0.1650      500.00    5000.00
  61.     1.650        1.35   0.1650      500.00    5000.00
  62.     1.650        1.35   0.1650      500.00    5000.00
  63.     1.650        1.35   0.1650      500.00    5000.00
  64.     1.650        1.35   0.1650      500.00    5000.00
  65.     1.650        1.35   0.1650      500.00    5000.00
  66.     1.650        1.35   0.1650      500.00    5000.00
  67.     1.650        1.35   0.1650      500.00    5000.00
  68.     1.650        1.35   0.1650      500.00    5000.00
  69.     1.650        1.35   0.1650      500.00    5000.00
  70.     1.650        1.35   0.1650      500.00    5000.00
  71.     1.650        1.35   0.1650      500.00    5000.00
  72.     1.650        1.35   0.1650      500.00    5000.00
  73.     1.650        1.35   0.1650      500.00    5000.00
  74.     1.650        1.35   0.1650      500.00    5000.00
  75.     1.650        1.35   0.1650      500.00    5000.00
  76.     1.650        1.35   0.1650      500.00    5000.00
  77.     1.650        1.35   0.1650      500.00    5000.00
  78.     1.650        1.35   0.1650      500.00    5000.00
  79.     1.650        1.35   0.1650      500.00    5000.00
  80.     1.650        1.35   0.1650      500.00    5000.00
  81.     1.650        1.35   0.1650      500.00    5000.00
  82.     1.650        1.35   0.1650      500.00    5000.00
  83.     1.650        1.35   0.1650      500.00    5000.00
  84.     1.650        1.35   0.1650      500.00    5000.00
  85.     1.650        1.35   0.1650      500.00    5000.00
  86.     1.650        1.35   0.1650      500.00    5000.00
  87.     1.650        1.35   0.1650      500.00    5000.00
  88.     1.650        1.35   0.1650      500.00    5000.00
  89.     1.650        1.35   0.1650      500.00    5000.00
  90.     1.650        1.35   0.1650      500.00    5000.00
  91.     1.650        1.35   0.1650      500.00    5000.00
  92.     1.650        1.35   0.1650      500.00    5000.00
  93.     1.650        1.35   0.1650      500.00    5000.00
  94.     1.650        1.35   0.1650      500.00    5000.00
  95.     1.650        1.35   0.1650      500.00    5000.00
  96.     1.650        1.35   0.1650      500.00    5000.00
  97.     1.650        1.35   0.1650      500.00    5000.00
  98.     1.650        1.35   0.1650      500.00    5000.00
  99.     1.650        1.35   0.1650      500.00    5000.00
 100.     1.650        1.35   0.1650      500.00    5000.00
 READING NODE BOUNDARY CONDITIONS (FIXED HEADS, IBOUNDS, AND FBCs)
  NODE  HEAD AND/OR IBOUND
           1  -1.00000000000000     
           2  -1.00000000000000     
           3  -1.00000000000000     
           4  -1.00000000000000     
           5  -1.00000000000000     
           6  -1.00000000000000     
           7  -1.00000000000000     
           8  -1.00000000000000     
           9  -1.00000000000000     
          10  -1.00000000000000     
          11  -1.00000000000000     
          12  -1.00000000000000     
          13  -1.00000000000000     
          14  -1.00000000000000     
          15  -1.00000000000000     
          16  -1.00000000000000     
          17  -1.00000000000000     
          18  -1.00000000000000     
          19  -1.00000000000000     
          20  -1.00000000000000     
          21  -1.00000000000000     
          22  -1.00000000000000     
          23  -1.00000000000000     
          24  -1.00000000000000     
          25  -1.00000000000000     
          26  -1.00000000000000     
          27  -1.00000000000000     
          28  -1.00000000000000     
          29  -1.00000000000000     
          30  -1.00000000000000     
          31  -1.00000000000000     
          32  -1.00000000000000     
          33  -1.00000000000000     
          34  -1.00000000000000     
          35  -1.00000000000000     
          36  -1.00000000000000     
          37  -1.00000000000000     
          38  -1.00000000000000     
          39  -1.00000000000000     
          40  -1.00000000000000     
          41  -1.00000000000000     
          42  -1.00000000000000     
          43  -1.00000000000000     
          44  -1.00000000000000     
          45  -1.00000000000000     
          46  -1.00000000000000     
          47  -1.00000000000000     
          48  -1.00000000000000     
          49  -1.00000000000000     
          50  -1.00000000000000     
          51  -1.00000000000000     
          52  -1.00000000000000     
          53  -1.00000000000000     
          54  -1.00000000000000     
          55  -1.00000000000000     
          56  -1.00000000000000     
          57  -1.00000000000000     
          58  -1.00000000000000     
          59  -1.00000000000000     
          60  -1.00000000000000     
          61  -1.00000000000000     
          62  -1.00000000000000     
          63  -1.00000000000000     
          64  -1.00000000000000     
          65  -1.00000000000000     
          66  -1.00000000000000     
          67  -1.00000000000000     
          68  -1.00000000000000     
          69  -1.00000000000000     
          70  -1.00000000000000     
          71  -1.00000000000000     
          72  -1.00000000000000     
          73  -1.00000000000000     
          74  -1.00000000000000     
          75  -1.00000000000000     
          76  -1.00000000000000     
          77  -1.00000000000000     
          78  -1.00000000000000     
          79  -1.00000000000000     
          80  -1.00000000000000     
          81  -1.00000000000000     
          82  -1.00000000000000     
          83  -1.00000000000000     
          84  -1.00000000000000     
          85  -1.00000000000000     
          86  -1.00000000000000     
          87  -1.00000000000000     
          88  -1.00000000000000     
          89  -1.00000000000000     
          90  -1.00000000000000     
          91  -1.00000000000000     
          92  -1.00000000000000     
          93  -1.00000000000000     
          94  -1.00000000000000     
          95  -1.00000000000000     
          96  -1.00000000000000     
          97  -1.00000000000000     
 SURFACE-AREA DEPENDENT EXCHANGE IS NOT ACTIVE
 READING EXCHANGE COEFFICIENTS
 NODE I  K_EXCHANGE(I)  W_CADS(I)
   1    .8750E-03       0.300
   2    .8750E-03       0.000
   3    .8750E-03       0.000
   4    .8750E-03       0.000
   5    .8750E-03       0.000
   6    .8750E-03       0.000
   7    .8750E-03       0.000
   8    .8750E-03       0.000
   9    .8750E-03       0.000
  10    .8750E-03       0.000
  11    .8750E-03       0.000
  12    .8750E-03       0.000
  13    .8750E-03       0.000
  14    .8750E-03       0.000
  15    .8750E-03       0.000
  16    .8750E-03       0.000
  17    .8750E-03       0.000
  18    .8750E-03       0.000
  19    .8750E-03       0.000
  20    .8750E-03       0.000
  21    .8750E-03       0.300
  22    .8750E-03       0.000
  23    .8750E-03       0.000
  24    .8750E-03       0.000
  25    .8750E-03       0.000
  26    .8750E-03       0.000
  27    .8750E-03       0.000
  28    .8750E-03       0.000
  29    .8750E-03       0.000
  30    .8750E-03       0.000
  31    .8750E-03       0.000
  32    .8750E-03       0.000
  33    .8750E-03       0.000
  34    .8750E-03       0.000
  35    .8750E-03       0.000
  36    .8750E-03       0.000
  37    .8750E-03       0.000
  38    .8750E-03       0.000
  39    .8750E-03       0.000
  40    .8750E-03       0.000
  41    .8750E-03       0.000
  42    .8750E-03       0.000
  43    .8750E-03       0.000
  44    .8750E-03       0.000
  45    .8750E-03       0.000
  46    .8750E-03       0.000
  47    .8750E-03       0.000
  48    .8750E-03       0.000
  49    .8750E-03       0.000
  50    .8750E-03       0.000
  51    .8750E-03       0.000
  52    .8750E-03       0.000
  53    .8750E-03       0.000
  54    .8750E-03       0.000
  55    .8750E-03       0.000
  56    .8750E-03       0.000
  57    .8750E-03       0.000
  58    .8750E-03       0.000
  59    .8750E-03       0.000
  60    .8750E-03       0.000
  61    .8750E-03       0.000
  62    .8750E-03       0.000
  63    .8750E-03       0.000
  64    .8750E-03       0.000
  65    .8750E-03       0.000
  66    .8750E-03       0.000
  67    .8750E-03       0.000
  68    .8750E-03       0.000
  69    .8750E-03       0.000
  70    .8750E-03       0.000
  71    .8750E-03       0.000
  72    .7500E-01       0.000
  73    .8750E-03       0.000
  74    .8750E-03       0.000
  75    .8750E-03       0.000
  76    .8750E-03       0.000
  77    .8750E-03       0.000
  78    .8750E-03       0.000
  79    .8750E-03       0.000
  80    .8750E-03       0.000
  81    .8750E-03       0.000
  82    .8750E-03       0.000
  83    .8750E-03       0.000
  84    .8750E-03       0.000
  85    .8750E-03       0.000
  86    .8750E-03       0.000
  87    .8750E-03       0.000
  88    .8750E-03       0.000
  89    .8750E-03       0.000
  90    .8750E-03       0.000
  91    .8750E-03       0.000
  92    .8750E-03       0.000
  93    .8750E-03       0.000
  94    .8750E-03       0.000
  95    .8750E-03       0.000
  96    .8750E-03       0.000
  97    .8750E-03       0.300
 READING CONDUIT OUTPUT CONTROL FROM UNIT          54
 NNODES            97
 TSNO               1
 TSNO               2
 TSNO               3
 TSNO               4
 TSNO               5
 TSNO               6
 TSNO               7
 TSNO               8
 TSNO               9
 TSNO              10
 TSNO              11
 TSNO              12
 TSNO              13
 TSNO              14
 TSNO              15
 TSNO              16
 TSNO              17
 TSNO              18
 TSNO              19
 TSNO              20
 TSNO              21
 TSNO              22
 TSNO              23
 TSNO              24
 TSNO              25
 TSNO              26
 TSNO              27
 TSNO              28
 TSNO              29
 TSNO              30
 TSNO              31
 TSNO              32
 TSNO              33
 TSNO              34
 TSNO              35
 TSNO              36
 TSNO              37
 TSNO              38
 TSNO              39
 TSNO              40
 TSNO              41
 TSNO              42
 TSNO              43
 TSNO              44
 TSNO              45
 TSNO              46
 TSNO              47
 TSNO              48
 TSNO              49
 TSNO              50
 TSNO              51
 TSNO              52
 TSNO              53
 TSNO              54
 TSNO              55
 TSNO              56
 TSNO              57
 TSNO              58
 TSNO              59
 TSNO              60
 TSNO              61
 TSNO              62
 TSNO              63
 TSNO              64
 TSNO              65
 TSNO              66
 TSNO              67
 TSNO              68
 TSNO              69
 TSNO              70
 TSNO              71
 TSNO              72
 TSNO              73
 TSNO              74
 TSNO              75
 TSNO              76
 TSNO              77
 TSNO              78
 TSNO              79
 TSNO              80
 TSNO              81
 TSNO              82
 TSNO              83
 TSNO              84
 TSNO              85
 TSNO              86
 TSNO              87
 TSNO              88
 TSNO              89
 TSNO              90
 TSNO              91
 TSNO              92
 TSNO              93
 TSNO              94
 TSNO              95
 TSNO              96
 TSNO              97
 NOTSNO             1
 NTUBES           100
 TSTU               1
 TSTU               2
 TSTU               3
 TSTU               4
 TSTU               5
 TSTU               6
 TSTU               7
 TSTU               8
 TSTU               9
 TSTU              10
 TSTU              11
 TSTU              12
 TSTU              13
 TSTU              14
 TSTU              15
 TSTU              16
 TSTU              17
 TSTU              18
 TSTU              19
 TSTU              20
 TSTU              21
 TSTU              22
 TSTU              23
 TSTU              24
 TSTU              25
 TSTU              26
 TSTU              27
 TSTU              28
 TSTU              29
 TSTU              30
 TSTU              31
 TSTU              32
 TSTU              33
 TSTU              34
 TSTU              35
 TSTU              36
 TSTU              37
 TSTU              38
 TSTU              39
 TSTU              40
 TSTU              41
 TSTU              42
 TSTU              43
 TSTU              44
 TSTU              45
 TSTU              46
 TSTU              47
 TSTU              48
 TSTU              49
 TSTU              50
 TSTU              51
 TSTU              52
 TSTU              53
 TSTU              54
 TSTU              55
 TSTU              56
 TSTU              57
 TSTU              58
 TSTU              59
 TSTU              60
 TSTU              61
 TSTU              62
 TSTU              63
 TSTU              64
 TSTU              65
 TSTU              66
 TSTU              67
 TSTU              68
 TSTU              69
 TSTU              70
 TSTU              71
 TSTU              72
 TSTU              73
 TSTU              74
 TSTU              75
 TSTU              76
 TSTU              77
 TSTU              78
 TSTU              79
 TSTU              80
 TSTU              81
 TSTU              82
 TSTU              83
 TSTU              84
 TSTU              85
 TSTU              86
 TSTU              87
 TSTU              88
 TSTU              89
 TSTU              90
 TSTU              91
 TSTU              92
 TSTU              93
 TSTU              94
 TSTU              95
 TSTU              96
 TSTU              97
 TSTU              98
 TSTU              99
 TSTU             100
 NOTSTU             1
 PROCESSING AND CHECKING CONDUIT-NETWORK
 TESTING THE CONDUIT NETWORK:
  NO ERRORS DETECTED           `:) 
  NO WARNINGS             `:)
 BEGINNING CFPM1 SUBROUTINE DETERM_TUB
 BEGINNING CFPM1 SUBROUTINE GEOCALC THAT CALCULATES XYZ COORDINATES OF NODES
 TOP-ARRAY / BOT-ARRAY:
   50.0000000000000            0.000000000000000E+000
  NODE   COLUMN    ROW    LAY      X         Y            Z      
      1     31      5      1     762.500     112.500     5.00000    
      2     32      5      1     787.500     112.500     5.00000    
      3     31      6      1     762.500     137.500     5.00000    
      4     32      6      1     787.500     137.500     5.00000    
      5     30      7      1     737.500     162.500     5.00000    
      6     31      7      1     762.500     162.500     5.00000    
      7     29      8      1     712.500     187.500     5.00000    
      8     30      8      1     737.500     187.500     5.00000    
      9     29      9      1     712.500     212.500     5.00000    
     10     28     10      1     687.500     237.500     5.00000    
     11     29     10      1     712.500     237.500     5.00000    
     12     28     11      1     687.500     262.500     5.00000    
     13     27     12      1     662.500     287.500     5.00000    
     14     28     12      1     687.500     287.500     5.00000    
     15     27     13      1     662.500     312.500     5.00000    
     16     26     14      1     637.500     337.500     5.00000    
     17     27     14      1     662.500     337.500     5.00000    
     18     34     14      1     837.500     337.500     5.00000    
     19     25     15      1     612.500     362.500     5.00000    
     20     26     15      1     637.500     362.500     5.00000    
     21     33     15      1     812.500     362.500     5.00000    
     22     34     15      1     837.500     362.500     5.00000    
     23     25     16      1     612.500     387.500     5.00000    
     24     34     16      1     837.500     387.500     5.00000    
     25     25     17      1     612.500     412.500     5.00000    
     26     34     17      1     837.500     412.500     5.00000    
     27     24     18      1     587.500     437.500     5.00000    
     28     25     18      1     612.500     437.500     5.00000    
     29     33     18      1     812.500     437.500     5.00000    
     30     34     18      1     837.500     437.500     5.00000    
     31     23     19      1     562.500     462.500     5.00000    
     32     24     19      1     587.500     462.500     5.00000    
     33     33     19      1     812.500     462.500     5.00000    
     34     23     20      1     562.500     487.500     5.00000    
     35     33     20      1     812.500     487.500     5.00000    
     36     22     21      1     537.500     512.500     5.00000    
     37     23     21      1     562.500     512.500     5.00000    
     38     31     21      1     762.500     512.500     5.00000    
     39     32     21      1     787.500     512.500     5.00000    
     40     33     21      1     812.500     512.500     5.00000    
     41     21     22      1     512.500     537.500     5.00000    
     42     22     22      1     537.500     537.500     5.00000    
     43     26     22      1     637.500     537.500     5.00000    
     44     27     22      1     662.500     537.500     5.00000    
     45     28     22      1     687.500     537.500     5.00000    
     46     29     22      1     712.500     537.500     5.00000    
     47     30     22      1     737.500     537.500     5.00000    
     48     31     22      1     762.500     537.500     5.00000    
     49     20     23      1     487.500     562.500     5.00000    
     50     21     23      1     512.500     562.500     5.00000    
     51     25     23      1     612.500     562.500     5.00000    
     52     26     23      1     637.500     562.500     5.00000    
     53     18     24      1     437.500     587.500     5.00000    
     54     19     24      1     462.500     587.500     5.00000    
     55     20     24      1     487.500     587.500     5.00000    
     56     21     24      1     512.500     587.500     5.00000    
     57     22     24      1     537.500     587.500     5.00000    
     58     23     24      1     562.500     587.500     5.00000    
     59     24     24      1     587.500     587.500     5.00000    
     60     25     24      1     612.500     587.500     5.00000    
     61     10     25      1     237.500     612.500     5.00000    
     62     11     25      1     262.500     612.500     5.00000    
     63     12     25      1     287.500     612.500     5.00000    
     64     13     25      1     312.500     612.500     5.00000    
     65     14     25      1     337.500     612.500     5.00000    
     66     15     25      1     362.500     612.500     5.00000    
     67     16     25      1     387.500     612.500     5.00000    
     68     17     25      1     412.500     612.500     5.00000    
     69     18     25      1     437.500     612.500     5.00000    
     70     19     25      1     462.500     612.500     5.00000    
     71     20     25      1     487.500     612.500     5.00000    
     72     10     26      1     237.500     637.500     5.00000    
     73     20     26      1     487.500     637.500     5.00000    
     74     21     26      1     512.500     637.500     5.00000    
     75     22     26      1     537.500     637.500     5.00000    
     76     22     27      1     537.500     662.500     5.00000    
     77     23     27      1     562.500     662.500     5.00000    
     78     23     28      1     562.500     687.500     5.00000    
     79     24     28      1     587.500     687.500     5.00000    
     80     25     28      1     612.500     687.500     5.00000    
     81     25     29      1     612.500     712.500     5.00000    
     82     26     29      1     637.500     712.500     5.00000    
     83     26     30      1     637.500     737.500     5.00000    
     84     26     31      1     637.500     762.500     5.00000    
     85     27     31      1     662.500     762.500     5.00000    
     86     28     31      1     687.500     762.500     5.00000    
     87     28     32      1     687.500     787.500     5.00000    
     88     29     32      1     712.500     787.500     5.00000    
     89     29     33      1     712.500     812.500     5.00000    
     90     30     33      1     737.500     812.500     5.00000    
     91     30     34      1     737.500     837.500     5.00000    
     92     31     34      1     762.500     837.500     5.00000    
     93     32     34      1     787.500     837.500     5.00000    
     94     32     35      1     787.500     862.500     5.00000    
     95     33     35      1     812.500     862.500     5.00000    
     96     34     35      1     837.500     862.500     5.00000    
     97     33     36      1     812.500     887.500     5.00000    
 
 BEGINNING CFPM1 LENGTH_CAL SUBROUTINE
 BEGINNING CFPM1 ROUGH_CAL SUBROUTINE

 OBS2BAS7 -- HEAD OBSERVATIONS, VERSION 2.0, 2/28/2006
 INPUT READ FROM UNIT  39
 # HOB package for MODFLOW-2005 generated by Flopy 3.5.0

 NUMBER OF HEADS....................................:  240
   NUMBER OF MULTILAYER HEADS.......................:    0
   MAXIMUM NUMBER OF LAYERS FOR MULTILAYER HEADS....:    0
 HEAD OBSERVATIONS WILL NOT BE SAVED IN A FILE
 SIMULATED EQUIVALENT HEAD AT DRY CELLS WILL BE:   -9999.00    

 OBSERVED HEAD DATA -- TIME OFFSETS ARE MULTIPLIED BY:   1.0000    

                    REFER.
       OBSERVATION  STRESS    TIME
  OBS#    NAME      PERIOD   OFFSET    OBSERVATION
     1 obs1           -48    0.000       0.000    
  TRANSIENT DATA AT THIS LOCATION, ITT =   1
     1 obs1_1           2    0.000       11.56    
     2 obs1_2           3    0.000       11.56    
     3 obs1_3           4    0.000       11.56    
     4 obs1_4           5    0.000       11.55    
     5 obs1_5           6    0.000       11.55    
     6 obs1_6           7    0.000       11.55    
     7 obs1_7           8    0.000       11.55    
     8 obs1_8           9    0.000       11.55    
     9 obs1_9          10    0.000       11.55    
    10 obs1_10         11    0.000       11.55    
    11 obs1_11         12    0.000       11.55    
    12 obs1_12         13    0.000       11.55    
    13 obs1_13         14    0.000       11.55    
    14 obs1_14         15    0.000       11.55    
    15 obs1_15         16    0.000       11.55    
    16 obs1_16         17    0.000       11.55    
    17 obs1_17         18    0.000       11.56    
    18 obs1_18         19    0.000       11.56    
    19 obs1_19         20    0.000       11.56    
    20 obs1_20         21    0.000       11.56    
    21 obs1_21         22    0.000       11.56    
    22 obs1_22         23    0.000       11.56    
    23 obs1_23         24    0.000       11.56    
    24 obs1_24         25    0.000       11.56    
    25 obs1_25         26    0.000       11.57    
    26 obs1_26         27    0.000       11.57    
    27 obs1_27         28    0.000       11.57    
    28 obs1_28         29    0.000       11.57    
    29 obs1_29         30    0.000       11.58    
    30 obs1_30         31    0.000       11.58    
    31 obs1_31         32    0.000       11.58    
    32 obs1_32         33    0.000       11.58    
    33 obs1_33         34    0.000       11.58    
    34 obs1_34         35    0.000       11.58    
    35 obs1_35         36    0.000       11.58    
    36 obs1_36         37    0.000       11.58    
    37 obs1_37         38    0.000       11.58    
    38 obs1_38         39    0.000       11.58    
    39 obs1_39         40    0.000       11.58    
    40 obs1_40         41    0.000       11.58    
    41 obs1_41         42    0.000       11.58    
    42 obs1_42         43    0.000       11.58    
    43 obs1_43         44    0.000       11.58    
    44 obs1_44         45    0.000       11.58    
    45 obs1_45         46    0.000       11.58    
    46 obs1_46         47    0.000       11.58    
    47 obs1_47         48    0.000       11.58    
    48 obs1_48         48    3600.       11.58    
 
    49 obs2           -48    0.000       0.000    
  TRANSIENT DATA AT THIS LOCATION, ITT =   1
    49 obs2_1           2    0.000       11.56    
    50 obs2_2           3    0.000       11.56    
    51 obs2_3           4    0.000       11.56    
    52 obs2_4           5    0.000       11.55    
    53 obs2_5           6    0.000       11.55    
    54 obs2_6           7    0.000       11.55    
    55 obs2_7           8    0.000       11.55    
    56 obs2_8           9    0.000       11.55    
    57 obs2_9          10    0.000       11.55    
    58 obs2_10         11    0.000       11.55    
    59 obs2_11         12    0.000       11.55    
    60 obs2_12         13    0.000       11.55    
    61 obs2_13         14    0.000       11.55    
    62 obs2_14         15    0.000       11.55    
    63 obs2_15         16    0.000       11.55    
    64 obs2_16         17    0.000       11.55    
    65 obs2_17         18    0.000       11.56    
    66 obs2_18         19    0.000       11.56    
    67 obs2_19         20    0.000       11.56    
    68 obs2_20         21    0.000       11.56    
    69 obs2_21         22    0.000       11.56    
    70 obs2_22         23    0.000       11.56    
    71 obs2_23         24    0.000       11.56    
    72 obs2_24         25    0.000       11.56    
    73 obs2_25         26    0.000       11.57    
    74 obs2_26         27    0.000       11.57    
    75 obs2_27         28    0.000       11.57    
    76 obs2_28         29    0.000       11.57    
    77 obs2_29         30    0.000       11.58    
    78 obs2_30         31    0.000       11.58    
    79 obs2_31         32    0.000       11.58    
    80 obs2_32         33    0.000       11.58    
    81 obs2_33         34    0.000       11.58    
    82 obs2_34         35    0.000       11.58    
    83 obs2_35         36    0.000       11.58    
    84 obs2_36         37    0.000       11.58    
    85 obs2_37         38    0.000       11.58    
    86 obs2_38         39    0.000       11.58    
    87 obs2_39         40    0.000       11.58    
    88 obs2_40         41    0.000       11.58    
    89 obs2_41         42    0.000       11.58    
    90 obs2_42         43    0.000       11.58    
    91 obs2_43         44    0.000       11.58    
    92 obs2_44         45    0.000       11.58    
    93 obs2_45         46    0.000       11.58    
    94 obs2_46         47    0.000       11.58    
    95 obs2_47         48    0.000       11.58    
    96 obs2_48         48    3600.       11.58    
 
    97 obs3           -48    0.000       0.000    
  TRANSIENT DATA AT THIS LOCATION, ITT =   1
    97 obs3_1           2    0.000       11.56    
    98 obs3_2           3    0.000       11.56    
    99 obs3_3           4    0.000       11.56    
   100 obs3_4           5    0.000       11.55    
   101 obs3_5           6    0.000       11.55    
   102 obs3_6           7    0.000       11.55    
   103 obs3_7           8    0.000       11.55    
   104 obs3_8           9    0.000       11.55    
   105 obs3_9          10    0.000       11.55    
   106 obs3_10         11    0.000       11.55    
   107 obs3_11         12    0.000       11.55    
   108 obs3_12         13    0.000       11.55    
   109 obs3_13         14    0.000       11.55    
   110 obs3_14         15    0.000       11.55    
   111 obs3_15         16    0.000       11.55    
   112 obs3_16         17    0.000       11.55    
   113 obs3_17         18    0.000       11.56    
   114 obs3_18         19    0.000       11.56    
   115 obs3_19         20    0.000       11.56    
   116 obs3_20         21    0.000       11.56    
   117 obs3_21         22    0.000       11.56    
   118 obs3_22         23    0.000       11.56    
   119 obs3_23         24    0.000       11.56    
   120 obs3_24         25    0.000       11.56    
   121 obs3_25         26    0.000       11.57    
   122 obs3_26         27    0.000       11.57    
   123 obs3_27         28    0.000       11.57    
   124 obs3_28         29    0.000       11.57    
   125 obs3_29         30    0.000       11.58    
   126 obs3_30         31    0.000       11.58    
   127 obs3_31         32    0.000       11.58    
   128 obs3_32         33    0.000       11.58    
   129 obs3_33         34    0.000       11.58    
   130 obs3_34         35    0.000       11.58    
   131 obs3_35         36    0.000       11.58    
   132 obs3_36         37    0.000       11.58    
   133 obs3_37         38    0.000       11.58    
   134 obs3_38         39    0.000       11.58    
   135 obs3_39         40    0.000       11.58    
   136 obs3_40         41    0.000       11.58    
   137 obs3_41         42    0.000       11.58    
   138 obs3_42         43    0.000       11.58    
   139 obs3_43         44    0.000       11.58    
   140 obs3_44         45    0.000       11.58    
   141 obs3_45         46    0.000       11.58    
   142 obs3_46         47    0.000       11.58    
   143 obs3_47         48    0.000       11.58    
   144 obs3_48         48    3600.       11.58    
 
   145 obs4           -48    0.000       0.000    
  TRANSIENT DATA AT THIS LOCATION, ITT =   1
   145 obs4_1           2    0.000       11.56    
   146 obs4_2           3    0.000       11.56    
   147 obs4_3           4    0.000       11.56    
   148 obs4_4           5    0.000       11.55    
   149 obs4_5           6    0.000       11.55    
   150 obs4_6           7    0.000       11.55    
   151 obs4_7           8    0.000       11.55    
   152 obs4_8           9    0.000       11.55    
   153 obs4_9          10    0.000       11.55    
   154 obs4_10         11    0.000       11.55    
   155 obs4_11         12    0.000       11.55    
   156 obs4_12         13    0.000       11.55    
   157 obs4_13         14    0.000       11.55    
   158 obs4_14         15    0.000       11.55    
   159 obs4_15         16    0.000       11.55    
   160 obs4_16         17    0.000       11.55    
   161 obs4_17         18    0.000       11.56    
   162 obs4_18         19    0.000       11.56    
   163 obs4_19         20    0.000       11.56    
   164 obs4_20         21    0.000       11.56    
   165 obs4_21         22    0.000       11.56    
   166 obs4_22         23    0.000       11.56    
   167 obs4_23         24    0.000       11.56    
   168 obs4_24         25    0.000       11.56    
   169 obs4_25         26    0.000       11.57    
   170 obs4_26         27    0.000       11.57    
   171 obs4_27         28    0.000       11.57    
   172 obs4_28         29    0.000       11.57    
   173 obs4_29         30    0.000       11.58    
   174 obs4_30         31    0.000       11.58    
   175 obs4_31         32    0.000       11.58    
   176 obs4_32         33    0.000       11.58    
   177 obs4_33         34    0.000       11.58    
   178 obs4_34         35    0.000       11.58    
   179 obs4_35         36    0.000       11.58    
   180 obs4_36         37    0.000       11.58    
   181 obs4_37         38    0.000       11.58    
   182 obs4_38         39    0.000       11.58    
   183 obs4_39         40    0.000       11.58    
   184 obs4_40         41    0.000       11.58    
   185 obs4_41         42    0.000       11.58    
   186 obs4_42         43    0.000       11.58    
   187 obs4_43         44    0.000       11.58    
   188 obs4_44         45    0.000       11.58    
   189 obs4_45         46    0.000       11.58    
   190 obs4_46         47    0.000       11.58    
   191 obs4_47         48    0.000       11.58    
   192 obs4_48         48    3600.       11.58    
 
   193 obs5           -48    0.000       0.000    
  TRANSIENT DATA AT THIS LOCATION, ITT =   1
   193 obs5_1           2    0.000       11.56    
   194 obs5_2           3    0.000       11.56    
   195 obs5_3           4    0.000       11.56    
   196 obs5_4           5    0.000       11.55    
   197 obs5_5           6    0.000       11.55    
   198 obs5_6           7    0.000       11.55    
   199 obs5_7           8    0.000       11.55    
   200 obs5_8           9    0.000       11.55    
   201 obs5_9          10    0.000       11.55    
   202 obs5_10         11    0.000       11.55    
   203 obs5_11         12    0.000       11.55    
   204 obs5_12         13    0.000       11.55    
   205 obs5_13         14    0.000       11.55    
   206 obs5_14         15    0.000       11.55    
   207 obs5_15         16    0.000       11.55    
   208 obs5_16         17    0.000       11.55    
   209 obs5_17         18    0.000       11.56    
   210 obs5_18         19    0.000       11.56    
   211 obs5_19         20    0.000       11.56    
   212 obs5_20         21    0.000       11.56    
   213 obs5_21         22    0.000       11.56    
   214 obs5_22         23    0.000       11.56    
   215 obs5_23         24    0.000       11.56    
   216 obs5_24         25    0.000       11.56    
   217 obs5_25         26    0.000       11.57    
   218 obs5_26         27    0.000       11.57    
   219 obs5_27         28    0.000       11.57    
   220 obs5_28         29    0.000       11.57    
   221 obs5_29         30    0.000       11.58    
   222 obs5_30         31    0.000       11.58    
   223 obs5_31         32    0.000       11.58    
   224 obs5_32         33    0.000       11.58    
   225 obs5_33         34    0.000       11.58    
   226 obs5_34         35    0.000       11.58    
   227 obs5_35         36    0.000       11.58    
   228 obs5_36         37    0.000       11.58    
   229 obs5_37         38    0.000       11.58    
   230 obs5_38         39    0.000       11.58    
   231 obs5_39         40    0.000       11.58    
   232 obs5_40         41    0.000       11.58    
   233 obs5_41         42    0.000       11.58    
   234 obs5_42         43    0.000       11.58    
   235 obs5_43         44    0.000       11.58    
   236 obs5_44         45    0.000       11.58    
   237 obs5_45         46    0.000       11.58    
   238 obs5_46         47    0.000       11.58    
   239 obs5_47         48    0.000       11.58    
   240 obs5_48         48    3600.       11.58    
 

                                                     HEAD CHANGE
                                                      REFERENCE
        OBSERVATION                   ROW     COL    OBSERVATION
  OBS#     NAME       LAY  ROW  COL  OFFSET  OFFSET   (IF > 0)
     1  obs1_1          1   32    5   0.276  -0.476        0
     2  obs1_2          1   32    5   0.276  -0.476        0
     3  obs1_3          1   32    5   0.276  -0.476        0
     4  obs1_4          1   32    5   0.276  -0.476        0
     5  obs1_5          1   32    5   0.276  -0.476        0
     6  obs1_6          1   32    5   0.276  -0.476        0
     7  obs1_7          1   32    5   0.276  -0.476        0
     8  obs1_8          1   32    5   0.276  -0.476        0
     9  obs1_9          1   32    5   0.276  -0.476        0
    10  obs1_10         1   32    5   0.276  -0.476        0
    11  obs1_11         1   32    5   0.276  -0.476        0
    12  obs1_12         1   32    5   0.276  -0.476        0
    13  obs1_13         1   32    5   0.276  -0.476        0
    14  obs1_14         1   32    5   0.276  -0.476        0
    15  obs1_15         1   32    5   0.276  -0.476        0
    16  obs1_16         1   32    5   0.276  -0.476        0
    17  obs1_17         1   32    5   0.276  -0.476        0
    18  obs1_18         1   32    5   0.276  -0.476        0
    19  obs1_19         1   32    5   0.276  -0.476        0
    20  obs1_20         1   32    5   0.276  -0.476        0
    21  obs1_21         1   32    5   0.276  -0.476        0
    22  obs1_22         1   32    5   0.276  -0.476        0
    23  obs1_23         1   32    5   0.276  -0.476        0
    24  obs1_24         1   32    5   0.276  -0.476        0
    25  obs1_25         1   32    5   0.276  -0.476        0
    26  obs1_26         1   32    5   0.276  -0.476        0
    27  obs1_27         1   32    5   0.276  -0.476        0
    28  obs1_28         1   32    5   0.276  -0.476        0
    29  obs1_29         1   32    5   0.276  -0.476        0
    30  obs1_30         1   32    5   0.276  -0.476        0
    31  obs1_31         1   32    5   0.276  -0.476        0
    32  obs1_32         1   32    5   0.276  -0.476        0
    33  obs1_33         1   32    5   0.276  -0.476        0
    34  obs1_34         1   32    5   0.276  -0.476        0
    35  obs1_35         1   32    5   0.276  -0.476        0
    36  obs1_36         1   32    5   0.276  -0.476        0
    37  obs1_37         1   32    5   0.276  -0.476        0
    38  obs1_38         1   32    5   0.276  -0.476        0
    39  obs1_39         1   32    5   0.276  -0.476        0
    40  obs1_40         1   32    5   0.276  -0.476        0
    41  obs1_41         1   32    5   0.276  -0.476        0
    42  obs1_42         1   32    5   0.276  -0.476        0
    43  obs1_43         1   32    5   0.276  -0.476        0
    44  obs1_44         1   32    5   0.276  -0.476        0
    45  obs1_45         1   32    5   0.276  -0.476        0
    46  obs1_46         1   32    5   0.276  -0.476        0
    47  obs1_47         1   32    5   0.276  -0.476        0
    48  obs1_48         1   32    5   0.276  -0.476        0
    49  obs2_1          1   20    9  -0.402  -0.245        0
    50  obs2_2          1   20    9  -0.402  -0.245        0
    51  obs2_3          1   20    9  -0.402  -0.245        0
    52  obs2_4          1   20    9  -0.402  -0.245        0
    53  obs2_5          1   20    9  -0.402  -0.245        0
    54  obs2_6          1   20    9  -0.402  -0.245        0
    55  obs2_7          1   20    9  -0.402  -0.245        0
    56  obs2_8          1   20    9  -0.402  -0.245        0
    57  obs2_9          1   20    9  -0.402  -0.245        0
    58  obs2_10         1   20    9  -0.402  -0.245        0
    59  obs2_11         1   20    9  -0.402  -0.245        0
    60  obs2_12         1   20    9  -0.402  -0.245        0
    61  obs2_13         1   20    9  -0.402  -0.245        0
    62  obs2_14         1   20    9  -0.402  -0.245        0
    63  obs2_15         1   20    9  -0.402  -0.245        0
    64  obs2_16         1   20    9  -0.402  -0.245        0
    65  obs2_17         1   20    9  -0.402  -0.245        0
    66  obs2_18         1   20    9  -0.402  -0.245        0
    67  obs2_19         1   20    9  -0.402  -0.245        0
    68  obs2_20         1   20    9  -0.402  -0.245        0
    69  obs2_21         1   20    9  -0.402  -0.245        0
    70  obs2_22         1   20    9  -0.402  -0.245        0
    71  obs2_23         1   20    9  -0.402  -0.245        0
    72  obs2_24         1   20    9  -0.402  -0.245        0
    73  obs2_25         1   20    9  -0.402  -0.245        0
    74  obs2_26         1   20    9  -0.402  -0.245        0
    75  obs2_27         1   20    9  -0.402  -0.245        0
    76  obs2_28         1   20    9  -0.402  -0.245        0
    77  obs2_29         1   20    9  -0.402  -0.245        0
    78  obs2_30         1   20    9  -0.402  -0.245        0
    79  obs2_31         1   20    9  -0.402  -0.245        0
    80  obs2_32         1   20    9  -0.402  -0.245        0
    81  obs2_33         1   20    9  -0.402  -0.245        0
    82  obs2_34         1   20    9  -0.402  -0.245        0
    83  obs2_35         1   20    9  -0.402  -0.245        0
    84  obs2_36         1   20    9  -0.402  -0.245        0
    85  obs2_37         1   20    9  -0.402  -0.245        0
    86  obs2_38         1   20    9  -0.402  -0.245        0
    87  obs2_39         1   20    9  -0.402  -0.245        0
    88  obs2_40         1   20    9  -0.402  -0.245        0
    89  obs2_41         1   20    9  -0.402  -0.245        0
    90  obs2_42         1   20    9  -0.402  -0.245        0
    91  obs2_43         1   20    9  -0.402  -0.245        0
    92  obs2_44         1   20    9  -0.402  -0.245        0
    93  obs2_45         1   20    9  -0.402  -0.245        0
    94  obs2_46         1   20    9  -0.402  -0.245        0
    95  obs2_47         1   20    9  -0.402  -0.245        0
    96  obs2_48         1   20    9  -0.402  -0.245        0
    97  obs3_1          1   17   18   0.213  -0.115        0
    98  obs3_2          1   17   18   0.213  -0.115        0
    99  obs3_3          1   17   18   0.213  -0.115        0
   100  obs3_4          1   17   18   0.213  -0.115        0
   101  obs3_5          1   17   18   0.213  -0.115        0
   102  obs3_6          1   17   18   0.213  -0.115        0
   103  obs3_7          1   17   18   0.213  -0.115        0
   104  obs3_8          1   17   18   0.213  -0.115        0
   105  obs3_9          1   17   18   0.213  -0.115        0
   106  obs3_10         1   17   18   0.213  -0.115        0
   107  obs3_11         1   17   18   0.213  -0.115        0
   108  obs3_12         1   17   18   0.213  -0.115        0
   109  obs3_13         1   17   18   0.213  -0.115        0
   110  obs3_14         1   17   18   0.213  -0.115        0
   111  obs3_15         1   17   18   0.213  -0.115        0
   112  obs3_16         1   17   18   0.213  -0.115        0
   113  obs3_17         1   17   18   0.213  -0.115        0
   114  obs3_18         1   17   18   0.213  -0.115        0
   115  obs3_19         1   17   18   0.213  -0.115        0
   116  obs3_20         1   17   18   0.213  -0.115        0
   117  obs3_21         1   17   18   0.213  -0.115        0
   118  obs3_22         1   17   18   0.213  -0.115        0
   119  obs3_23         1   17   18   0.213  -0.115        0
   120  obs3_24         1   17   18   0.213  -0.115        0
   121  obs3_25         1   17   18   0.213  -0.115        0
   122  obs3_26         1   17   18   0.213  -0.115        0
   123  obs3_27         1   17   18   0.213  -0.115        0
   124  obs3_28         1   17   18   0.213  -0.115        0
   125  obs3_29         1   17   18   0.213  -0.115        0
   126  obs3_30         1   17   18   0.213  -0.115        0
   127  obs3_31         1   17   18   0.213  -0.115        0
   128  obs3_32         1   17   18   0.213  -0.115        0
   129  obs3_33         1   17   18   0.213  -0.115        0
   130  obs3_34         1   17   18   0.213  -0.115        0
   131  obs3_35         1   17   18   0.213  -0.115        0
   132  obs3_36         1   17   18   0.213  -0.115        0
   133  obs3_37         1   17   18   0.213  -0.115        0
   134  obs3_38         1   17   18   0.213  -0.115        0
   135  obs3_39         1   17   18   0.213  -0.115        0
   136  obs3_40         1   17   18   0.213  -0.115        0
   137  obs3_41         1   17   18   0.213  -0.115        0
   138  obs3_42         1   17   18   0.213  -0.115        0
   139  obs3_43         1   17   18   0.213  -0.115        0
   140  obs3_44         1   17   18   0.213  -0.115        0
   141  obs3_45         1   17   18   0.213  -0.115        0
   142  obs3_46         1   17   18   0.213  -0.115        0
   143  obs3_47         1   17   18   0.213  -0.115        0
   144  obs3_48         1   17   18   0.213  -0.115        0
   145  obs4_1          1   23   22  -0.015  -0.372        0
   146  obs4_2          1   23   22  -0.015  -0.372        0
   147  obs4_3          1   23   22  -0.015  -0.372        0
   148  obs4_4          1   23   22  -0.015  -0.372        0
   149  obs4_5          1   23   22  -0.015  -0.372        0
   150  obs4_6          1   23   22  -0.015  -0.372        0
   151  obs4_7          1   23   22  -0.015  -0.372        0
   152  obs4_8          1   23   22  -0.015  -0.372        0
   153  obs4_9          1   23   22  -0.015  -0.372        0
   154  obs4_10         1   23   22  -0.015  -0.372        0
   155  obs4_11         1   23   22  -0.015  -0.372        0
   156  obs4_12         1   23   22  -0.015  -0.372        0
   157  obs4_13         1   23   22  -0.015  -0.372        0
   158  obs4_14         1   23   22  -0.015  -0.372        0
   159  obs4_15         1   23   22  -0.015  -0.372        0
   160  obs4_16         1   23   22  -0.015  -0.372        0
   161  obs4_17         1   23   22  -0.015  -0.372        0
   162  obs4_18         1   23   22  -0.015  -0.372        0
   163  obs4_19         1   23   22  -0.015  -0.372        0
   164  obs4_20         1   23   22  -0.015  -0.372        0
   165  obs4_21         1   23   22  -0.015  -0.372        0
   166  obs4_22         1   23   22  -0.015  -0.372        0
   167  obs4_23         1   23   22  -0.015  -0.372        0
   168  obs4_24         1   23   22  -0.015  -0.372        0
   169  obs4_25         1   23   22  -0.015  -0.372        0
   170  obs4_26         1   23   22  -0.015  -0.372        0
   171  obs4_27         1   23   22  -0.015  -0.372        0
   172  obs4_28         1   23   22  -0.015  -0.372        0
   173  obs4_29         1   23   22  -0.015  -0.372        0
   174  obs4_30         1   23   22  -0.015  -0.372        0
   175  obs4_31         1   23   22  -0.015  -0.372        0
   176  obs4_32         1   23   22  -0.015  -0.372        0
   177  obs4_33         1   23   22  -0.015  -0.372        0
   178  obs4_34         1   23   22  -0.015  -0.372        0
   179  obs4_35         1   23   22  -0.015  -0.372        0
   180  obs4_36         1   23   22  -0.015  -0.372        0
   181  obs4_37         1   23   22  -0.015  -0.372        0
   182  obs4_38         1   23   22  -0.015  -0.372        0
   183  obs4_39         1   23   22  -0.015  -0.372        0
   184  obs4_40         1   23   22  -0.015  -0.372        0
   185  obs4_41         1   23   22  -0.015  -0.372        0
   186  obs4_42         1   23   22  -0.015  -0.372        0
   187  obs4_43         1   23   22  -0.015  -0.372        0
   188  obs4_44         1   23   22  -0.015  -0.372        0
   189  obs4_45         1   23   22  -0.015  -0.372        0
   190  obs4_46         1   23   22  -0.015  -0.372        0
   191  obs4_47         1   23   22  -0.015  -0.372        0
   192  obs4_48         1   23   22  -0.015  -0.372        0
   193  obs5_1          1   23   32   0.438  -0.160        0
   194  obs5_2          1   23   32   0.438  -0.160        0
   195  obs5_3          1   23   32   0.438  -0.160        0
   196  obs5_4          1   23   32   0.438  -0.160        0
   197  obs5_5          1   23   32   0.438  -0.160        0
   198  obs5_6          1   23   32   0.438  -0.160        0
   199  obs5_7          1   23   32   0.438  -0.160        0
   200  obs5_8          1   23   32   0.438  -0.160        0
   201  obs5_9          1   23   32   0.438  -0.160        0
   202  obs5_10         1   23   32   0.438  -0.160        0
   203  obs5_11         1   23   32   0.438  -0.160        0
   204  obs5_12         1   23   32   0.438  -0.160        0
   205  obs5_13         1   23   32   0.438  -0.160        0
   206  obs5_14         1   23   32   0.438  -0.160        0
   207  obs5_15         1   23   32   0.438  -0.160        0
   208  obs5_16         1   23   32   0.438  -0.160        0
   209  obs5_17         1   23   32   0.438  -0.160        0
   210  obs5_18         1   23   32   0.438  -0.160        0
   211  obs5_19         1   23   32   0.438  -0.160        0
   212  obs5_20         1   23   32   0.438  -0.160        0
   213  obs5_21         1   23   32   0.438  -0.160        0
   214  obs5_22         1   23   32   0.438  -0.160        0
   215  obs5_23         1   23   32   0.438  -0.160        0
   216  obs5_24         1   23   32   0.438  -0.160        0
   217  obs5_25         1   23   32   0.438  -0.160        0
   218  obs5_26         1   23   32   0.438  -0.160        0
   219  obs5_27         1   23   32   0.438  -0.160        0
   220  obs5_28         1   23   32   0.438  -0.160        0
   221  obs5_29         1   23   32   0.438  -0.160        0
   222  obs5_30         1   23   32   0.438  -0.160        0
   223  obs5_31         1   23   32   0.438  -0.160        0
   224  obs5_32         1   23   32   0.438  -0.160        0
   225  obs5_33         1   23   32   0.438  -0.160        0
   226  obs5_34         1   23   32   0.438  -0.160        0
   227  obs5_35         1   23   32   0.438  -0.160        0
   228  obs5_36         1   23   32   0.438  -0.160        0
   229  obs5_37         1   23   32   0.438  -0.160        0
   230  obs5_38         1   23   32   0.438  -0.160        0
   231  obs5_39         1   23   32   0.438  -0.160        0
   232  obs5_40         1   23   32   0.438  -0.160        0
   233  obs5_41         1   23   32   0.438  -0.160        0
   234  obs5_42         1   23   32   0.438  -0.160        0
   235  obs5_43         1   23   32   0.438  -0.160        0
   236  obs5_44         1   23   32   0.438  -0.160        0
   237  obs5_45         1   23   32   0.438  -0.160        0
   238  obs5_46         1   23   32   0.438  -0.160        0
   239  obs5_47         1   23   32   0.438  -0.160        0
   240  obs5_48         1   23   32   0.438  -0.160        0
1
                            STRESS PERIOD NO.    1, LENGTH =   3600.000    
                            -----------------------------------------------

                              NUMBER OF TIME STEPS =     1

                               MULTIPLIER FOR DELT =     1.000

                            INITIAL TIME STEP SIZE =   3600.000    



                           RECHARGE
 READING ON UNIT   19 WITH FORMAT: (48E15.6)           

 CHD NO.   LAYER   ROW   COL    START HEAD        END HEAD         
 ------------------------------------------------------------------
      1      1      1      1       10.00           10.00    
      2      1      2      1       10.00           10.00    
      3      1      3      1       10.00           10.00    
      4      1      4      1       10.00           10.00    
      5      1      5      1       10.00           10.00    
      6      1      6      1       10.00           10.00    
      7      1      7      1       10.00           10.00    
      8      1      8      1       10.00           10.00    
      9      1      9      1       10.00           10.00    
     10      1     10      1       10.00           10.00    
     11      1     11      1       10.00           10.00    
     12      1     12      1       10.00           10.00    
     13      1     13      1       10.00           10.00    
     14      1     14      1       10.00           10.00    
     15      1     15      1       10.00           10.00    
     16      1     16      1       10.00           10.00    
     17      1     17      1       10.00           10.00    
     18      1     18      1       10.00           10.00    
     19      1     19      1       10.00           10.00    
     20      1     20      1       10.00           10.00    
     21      1     21      1       10.00           10.00    
     22      1     22      1       10.00           10.00    
     23      1     23      1       10.00           10.00    
     24      1     24      1       10.00           10.00    
     25      1     25      1       10.00           10.00    
     26      1     26      1       10.00           10.00    
     27      1     27      1       10.00           10.00    
     28      1     28      1       10.00           10.00    
     29      1     29      1       10.00           10.00    
[...]

     CUMULATIVE VOLUMES      L**3       RATES FOR THIS TIME STEP      L**3/T
     ------------------                 ------------------------

           IN:                                      IN:
           ---                                      ---
             STORAGE =        1960.4728               STORAGE =       1.9130E-02
       CONSTANT HEAD =           0.0000         CONSTANT HEAD =           0.0000
            RECHARGE =        8915.7505              RECHARGE =           0.0000
               PIPES =        2218.9944                 PIPES =       9.3698E-03

            TOTAL IN =       13095.2177              TOTAL IN =       2.8500E-02

          OUT:                                     OUT:
          ----                                     ----
             STORAGE =        8487.1345               STORAGE =       4.8820E-03
       CONSTANT HEAD =        2402.8219         CONSTANT HEAD =       1.4335E-02
            RECHARGE =        1124.0097              RECHARGE =           0.0000
               PIPES =        1081.6470                 PIPES =       9.2910E-03

           TOTAL OUT =       13095.6130             TOTAL OUT =       2.8508E-02

            IN - OUT =          -0.3953              IN - OUT =      -7.6678E-06

 PERCENT DISCREPANCY =           0.00     PERCENT DISCREPANCY =          -0.03






          TIME SUMMARY AT END OF TIME STEP   1 IN STRESS PERIOD   48
                    SECONDS     MINUTES      HOURS       DAYS        YEARS
                    -----------------------------------------------------------
   TIME STEP LENGTH  3600.0      60.000      1.0000     4.16667E-02 1.14077E-04
 STRESS PERIOD TIME  3600.0      60.000      1.0000     4.16667E-02 1.14077E-04
         TOTAL TIME 1.72800E+05  2880.0      48.000      2.0000     5.47570E-03
1

 HEAD AND DRAWDOWN OBSERVATIONS
 OBSERVATION       OBSERVED           SIMULATED
   NAME              VALUE              VALUE             DIFFERENCE
 --------------------------------------------------------------------
 obs1_1          11.555400000        10.456493614        1.0989063859    
 obs1_2          11.555300000        10.456311707        1.0989882928    
 obs1_3          11.555100000        10.456129897        1.0989701028    
 obs1_4          11.555000000        10.455948248        1.0990517524    
 obs1_5          11.554800000        10.455766829        1.0990331711    
 obs1_6          11.554700000        10.455585715        1.0991142853    
 obs1_7          11.554500000        10.455404979        1.0990950211    
 obs1_8          11.554400000        10.455224713        1.0991752870    
 obs1_9          11.554200000        10.455044965        1.0991550346    
 obs1_10         11.554100000        10.454865800        1.0992342001    
 obs1_11         11.553900000        10.454687275        1.0992127249    
 obs1_12         11.553900000        10.454691207        1.0992087932    
 obs1_13         11.553900000        10.454695794        1.0992042064    
 obs1_14         11.553700000        10.454519231        1.0991807687    
 obs1_15         11.553700000        10.454525137        1.0991748628    
 obs1_16         11.554100000        10.454986120        1.0991138798    
 obs1_17         11.555700000        10.456810837        1.0988891634    
 obs1_18         11.556900000        10.458271497        1.0986285032    
 obs1_19         11.558100000        10.459640240        1.0984597600    
 obs1_20         11.558800000        10.460552901        1.0982470994    
 obs1_21         11.559300000        10.461099966        1.0982000339    
 obs1_22         11.560700000        10.462735425        1.0979645752    
 obs1_23         11.562100000        10.464367790        1.0977322097    
 obs1_24         11.563500000        10.466087358        1.0974126417    
 obs1_25         11.565800000        10.468802403        1.0969975971    
 obs1_26         11.570100000        10.473784313        1.0963156867    
 obs1_27         11.573100000        10.477304534        1.0957954658    
 obs1_28         11.574400000        10.478816687        1.0955833131    
 obs1_29         11.575100000        10.479683815        1.0954161851    
 obs1_30         11.575800000        10.480451061        1.0953489392    
 obs1_31         11.576200000        10.480845675        1.0953543251    
 obs1_32         11.576300000        10.480958789        1.0953412114    
 obs1_33         11.576300000        10.480881733        1.0954182673    
 obs1_34         11.576500000        10.480978655        1.0955213448    
 obs1_35         11.576400000        10.480795648        1.0956043522    
 obs1_36         11.576900000        10.481333249        1.0955667507    
 obs1_37         11.577100000        10.481410249        1.0956897514    
 obs1_38         11.577200000        10.481390895        1.0958091051    
 obs1_39         11.577000000        10.481094036        1.0959059643    
 obs1_40         11.576800000        10.480793070        1.0960069297    
 obs1_41         11.576700000        10.480488666        1.0962113337    
 obs1_42         11.576500000        10.480181472        1.0963185276    
 obs1_43         11.576400000        10.479872107        1.0965278931    
 obs1_44         11.576400000        10.479742932        1.0966570681    
 obs1_45         11.577000000        10.480339741        1.0966602594    
 obs1_46         11.577400000        10.480753711        1.0966462893    
 obs1_47         11.577300000        10.480530610        1.0967693896    
 obs1_48         11.577200000        10.480216210        1.0969837901    
 obs2_1          11.555400000        10.746722605       0.80867739489    
 obs2_2          11.555300000        10.746541134       0.80875886565    
 obs2_3          11.555100000        10.746359631       0.80874036910    
 obs2_4          11.555000000        10.746178092       0.80882190834    
 obs2_5          11.554800000        10.745996510       0.80880349025    
 obs2_6          11.554700000        10.745814875       0.80888512498    
 obs2_7          11.554500000        10.745633174       0.80886682610    
 obs2_8          11.554400000        10.745451410       0.80894859026    
 obs2_9          11.554200000        10.745269543       0.80893045674    
 obs2_10         11.554100000        10.745087553       0.80901244696    
 obs2_11         11.553900000        10.744905416       0.80899458383    
 obs2_12         11.553900000        10.744904904       0.80899509649    
 obs2_13         11.553900000        10.744904197       0.80899580342    
 obs2_14         11.553700000        10.744721462       0.80897853776    
 obs2_15         11.553700000        10.744720317       0.80897968338    
 obs2_16         11.554100000        10.745173467       0.80892653257    
 obs2_17         11.555700000        10.746989983       0.80871001655    
 obs2_18         11.556900000        10.748442635       0.80845736549    
 obs2_19         11.558100000        10.749804212       0.80829578831    
 obs2_20         11.558800000        10.750711178       0.80808882199    
 obs2_21         11.559300000        10.751254562       0.80804543792    
 obs2_22         11.560700000        10.752889020       0.80781098019    
 obs2_23         11.562100000        10.754523800       0.80757619988    
 obs2_24         11.563500000        10.756249990       0.80725000988    
 obs2_25         11.565800000        10.758976863       0.80682313742    
 obs2_26         11.570100000        10.763977343       0.80612265684    
 obs2_27         11.573100000        10.767524485       0.80557551460    
 obs2_28         11.574400000        10.769073205       0.80532679493    
 obs2_29         11.575100000        10.769987491       0.80511250929    
 obs2_30         11.575800000        10.770813136       0.80498686433    
 obs2_31         11.576200000        10.771277736       0.80492226438    
 obs2_32         11.576300000        10.771472482       0.80482751802    
 obs2_33         11.576300000        10.771488512       0.80481148775    
 obs2_34         11.576500000        10.771689624       0.80481037640    
 obs2_35         11.576400000        10.771621377       0.80477862332    
 obs2_36         11.576900000        10.772283796       0.80461620396    
 obs2_37         11.577100000        10.772495055       0.80460494543    
 obs2_38         11.577200000        10.772618720       0.80458127999    
 obs2_39         11.577000000        10.772472861       0.80452713899    
 obs2_40         11.576800000        10.772330045       0.80446995513    
 obs2_41         11.576700000        10.772190076       0.80450992368    
 obs2_42         11.576500000        10.772052731       0.80444726855    
 obs2_43         11.576400000        10.771917764       0.80448223636    
 obs2_44         11.576400000        10.771966726       0.80443327379    
 obs2_45         11.577000000        10.772744796       0.80425520371    
 obs2_46         11.577400000        10.773342626       0.80405737385    
 obs2_47         11.577300000        10.773305429       0.80399457072    
 obs2_48         11.577200000        10.773178418       0.80402158158    
 obs3_1          11.555400000        12.293555184      -0.73815518356    
 obs3_2          11.555300000        12.293110775      -0.73781077519    
 obs3_3          11.555100000        12.292666384      -0.73756638388    
 obs3_4          11.555000000        12.292222010      -0.73722201015    
 obs3_5          11.554800000        12.291777653      -0.73697765349    
 obs3_6          11.554700000        12.291333314      -0.73663331390    
 obs3_7          11.554500000        12.290888991      -0.73638899138    
 obs3_8          11.554400000        12.290444734      -0.73604473421    
 obs3_9          11.554200000        12.290000494      -0.73580049428    
 obs3_10         11.554100000        12.289556272      -0.73545627162    
 obs3_11         11.553900000        12.289112066      -0.73521206623    
 obs3_12         11.553900000        12.289112256      -0.73521225597    
 obs3_13         11.553900000        12.289112446      -0.73521244574    
 obs3_14         11.553700000        12.288668208      -0.73496820825    
 obs3_15         11.553700000        12.288668415      -0.73496841520    
 obs3_16         11.554100000        12.289779691      -0.73567969069    
 obs3_17         11.555700000        12.294224128      -0.73852412774    
 obs3_18         11.556900000        12.297779540      -0.74087954011    
 obs3_19         11.558100000        12.301112602      -0.74301260232    
 obs3_20         11.558800000        12.303334468      -0.74453446796    
 obs3_21         11.559300000        12.304667393      -0.74536739316    
 obs3_22         11.560700000        12.308666831      -0.74796683099    
 obs3_23         11.562100000        12.312666115      -0.75056611501    
 obs3_24         11.563500000        12.316887461      -0.75338746065    
 obs3_25         11.565800000        12.323552994      -0.75775299389    
 obs3_26         11.570100000        12.335773613      -0.76567361302    
 obs3_27         11.573100000        12.344438343      -0.77133834257    
 obs3_28         11.574400000        12.348214039      -0.77381403867    
 obs3_29         11.575100000        12.350434092      -0.77533409176    
 obs3_30         11.575800000        12.352431845      -0.77663184507    
 obs3_31         11.576200000        12.353540666      -0.77734066631    
 obs3_32         11.576300000        12.353982803      -0.77768280297    
 obs3_33         11.576300000        12.353980494      -0.77768049444    
 obs3_34         11.576500000        12.354422612      -0.77792261175    
 obs3_35         11.576400000        12.354198070      -0.77779807045    
 obs3_36         11.576900000        12.355751246      -0.77885124579    
 obs3_37         11.577100000        12.356193291      -0.77909329134    
 obs3_38         11.577200000        12.356413105      -0.77921310463    
 obs3_39         11.577000000        12.355966266      -0.77896626628    
 obs3_40         11.576800000        12.355519443      -0.77871944285    
 obs3_41         11.576700000        12.355072634      -0.77837263405    
 obs3_42         11.576500000        12.354625840      -0.77812584015    
 obs3_43         11.576400000        12.354179060      -0.77777906032    
 obs3_44         11.576400000        12.354176721      -0.77777672104    
 obs3_45         11.577000000        12.355952088      -0.77895208775    
 obs3_46         11.577400000        12.357282954      -0.77988295437    
 obs3_47         11.577300000        12.357058270      -0.77975826982    
 obs3_48         11.577200000        12.356611375      -0.77941137540    
 obs4_1          11.555400000        12.395169144      -0.83976914427    
 obs4_2          11.555300000        12.394449508      -0.83914950798    
 obs4_3          11.555100000        12.393694087      -0.83859408689    
 obs4_4          11.555000000        12.392933210      -0.83793320991    
 obs4_5          11.554800000        12.392174802      -0.83737480191    
 obs4_6          11.554700000        12.391423044      -0.83672304391    
 obs4_7          11.554500000        12.390679651      -0.83617965081    
 obs4_8          11.554400000        12.389947201      -0.83554720077    
 obs4_9          11.554200000        12.389224118      -0.83502411846    
 obs4_10         11.554100000        12.388510166      -0.83441016584    
 obs4_11         11.553900000        12.387805077      -0.83390507749    
 obs4_12         11.553900000        12.387831642      -0.83393164192    
 obs4_13         11.553900000        12.387902826      -0.83400282583    
 obs4_14         11.553700000        12.387263810      -0.83356381023    
 obs4_15         11.553700000        12.387318803      -0.83361880334    
 obs4_16         11.554100000        12.389222447      -0.83512244675    
 obs4_17         11.555700000        12.396684102      -0.84098410200    
 obs4_18         11.556900000        12.402977179      -0.84607717950    
 obs4_19         11.558100000        12.408877689      -0.85077768876    
 obs4_20         11.558800000        12.412889618      -0.85408961829    
 obs4_21         11.559300000        12.415284437      -0.85598443721    
 obs4_22         11.560700000        12.421882365      -0.86118236525    
 obs4_23         11.562100000        12.428614416      -0.86651441624    
 obs4_24         11.563500000        12.435703681      -0.87220368110    
 obs4_25         11.565800000        12.446762697      -0.88096269659    
 obs4_26         11.570100000        12.467050390      -0.89695038960    
 obs4_27         11.573100000        12.481918517      -0.90881851727    
 obs4_28         11.574400000        12.488486178      -0.91408617844    
 obs4_29         11.575100000        12.491902433      -0.91680243325    
 obs4_30         11.575800000        12.494565557      -0.91876555694    
 obs4_31         11.576200000        12.495584096      -0.91938409561    
 obs4_32         11.576300000        12.495350751      -0.91905075064    
 obs4_33         11.576300000        12.494276410      -0.91797640966    
 obs4_34         11.576500000        12.493862924      -0.91736292433    
 obs4_35         11.576400000        12.492388564      -0.91598856375    
 obs4_36         11.576900000        12.493794471      -0.91689447140    
 obs4_37         11.577100000        12.493542584      -0.91644258421    
 obs4_38         11.577200000        12.492895207      -0.91569520747    
 obs4_39         11.577000000        12.491144249      -0.91414424945    
 obs4_40         11.576800000        12.489354247      -0.91255424743    
 obs4_41         11.576700000        12.487575502      -0.91087550195    
 obs4_42         11.576500000        12.485827781      -0.90932778145    
 obs4_43         11.576400000        12.484116600      -0.90771660027    
 obs4_44         11.576400000        12.483169354      -0.90676935423    
 obs4_45         11.577000000        12.485210395      -0.90821039473    
 obs4_46         11.577400000        12.486712393      -0.90931239323    
 obs4_47         11.577300000        12.485696133      -0.90839613275    
 obs4_48         11.577200000        12.484201612      -0.90700161212    
 obs5_1          11.555400000        13.907693025       -2.3522930248    
 obs5_2          11.555300000        13.907248124       -2.3519481237    
 obs5_3          11.555100000        13.906802701       -2.3517027009    
 obs5_4          11.555000000        13.906356726       -2.3513567257    
 obs5_5          11.554800000        13.905910182       -2.3511101816    
 obs5_6          11.554700000        13.905463062       -2.3507630617    
 obs5_7          11.554500000        13.905015364       -2.3505153640    
 obs5_8          11.554400000        13.904567141       -2.3501671413    
 obs5_9          11.554200000        13.904118350       -2.3499183501    
 obs5_10         11.554100000        13.903668997       -2.3495689966    
 obs5_11         11.553900000        13.903219088       -2.3493190881    
 obs5_12         11.553900000        13.903213474       -2.3493134742    
 obs5_13         11.553900000        13.903207851       -2.3493078511    
 obs5_14         11.553700000        13.902757369       -2.3490573691    
 obs5_15         11.553700000        13.902751312       -2.3490513121    
 obs5_16         11.554100000        13.903857547       -2.3497575468    
 obs5_17         11.555700000        13.908301942       -2.3526019417    
 obs5_18         11.556900000        13.911862093       -2.3549620930    
 obs5_19         11.558100000        13.915204590       -2.3571045899    
 obs5_20         11.558800000        13.917439454       -2.3586394537    
 obs5_21         11.559300000        13.918787811       -2.3594878113    
 obs5_22         11.560700000        13.922807706       -2.3621077062    
 obs5_23         11.562100000        13.926832841       -2.3647328411    
 obs5_24         11.563500000        13.931085797       -2.3675857974    
 obs5_25         11.565800000        13.937791400       -2.3719913997    
 obs5_26         11.570100000        13.950066988       -2.3799669878    
 obs5_27         11.573100000        13.958798982       -2.3856989818    
 obs5_28         11.574400000        13.962648785       -2.3882487854    
 obs5_29         11.575100000        13.964947095       -2.3898470945    
 obs5_30         11.575800000        13.967026230       -2.3912262303    
 obs5_31         11.576200000        13.968218124       -2.3920181244    
 obs5_32         11.576300000        13.968743828       -2.3924438281    
 obs5_33         11.576300000        13.968824674       -2.3925246742    
 obs5_34         11.576500000        13.969349652       -2.3928496524    
 obs5_35         11.576400000        13.969206800       -2.3928068003    
 obs5_36         11.576900000        13.970842133       -2.3939421329    
 obs5_37         11.577100000        13.971365757       -2.3942657572    
 obs5_38         11.577200000        13.971666123       -2.3944661227    
 obs5_39         11.577000000        13.971297915       -2.3942979154    
 obs5_40         11.576800000        13.970927558       -2.3941275585    
 obs5_41         11.576700000        13.970554906       -2.3938549063    
 obs5_42         11.576500000        13.970179862       -2.3936798615    
 obs5_43         11.576400000        13.969802352       -2.3934023516    
 obs5_44         11.576400000        13.969867223       -2.3934672230    
 obs5_45         11.577000000        13.971709697       -2.3947096969    
 obs5_46         11.577400000        13.973107428       -2.3957074275    
 obs5_47         11.577300000        13.972947750       -2.3956477500    
 obs5_48         11.577200000        13.972563508       -2.3953635078    

 SUM OF SQUARED DIFFERENCE:    4.23798E+02

 RUN END DATE AND TIME (YYYY/MM/DD HH:MM:SS): 2023/12/31 18:22:28
 ELAPSED RUN TIME:  1.090 SECONDS

